<?xml version="1.0" encoding="UTF-8" standalone="no"?>
<networkChangeEvents xmlns:xsi="http://www.w3.org/2001/XMLSchema-instance" xsi:schemaLocation="http://www.matsim.org/files/dtd http://www.matsim.org/files/dtd/networkChangeEvents.xsd" xmlns="http://www.matsim.org/files/dtd">
    
    <networkChangeEvent startTime="15:13:32">
        <link refId="24396"/>
        <flowCapacity type="absolute" value="24547.52"/>
    </networkChangeEvent>
    
    <networkChangeEvent startTime="16:28:13">
        <link refId="24396"/>
        <flowCapacity type="absolute" value="29936.0"/>
    </networkChangeEvent>
    
    <networkChangeEvent startTime="15:21:52">
        <link refId="24396"/>
        <flowCapacity type="absolute" value="26433.488"/>
    </networkChangeEvent>
</networkChangeEvents>
