<?xml version="1.0" encoding="utf-8"?>
<!DOCTYPE population SYSTEM "http://www.matsim.org/files/dtd/population_v5.dtd">

<population>


	<!-- ====================================================================== -->

	<person id="0016">
		<plan selected="yes">
			<act type="h" x="426417.06629532954" y="4507885.833186662" end_time="07:51:07" />
			<leg mode="car">
			</leg>
			<act type="w" x="414978.9252007304" y="4470132.60658531" end_time="14:55:41" />
			<leg mode="car">
			</leg>
			<act type="h" x="426417.06629532954" y="4507885.833186662" />
		</plan>

	</person>

	<!-- ====================================================================== -->

	<person id="0017">
		<plan selected="yes">
			<act type="h" x="423673.48857717146" y="4506732.328262982" end_time="09:04:30" />
			<leg mode="car">
			</leg>
			<act type="w" x="445669.9112426494" y="4448109.530099109" end_time="14:57:15" />
			<leg mode="car">
			</leg>
			<act type="h" x="423673.48857717146" y="4506732.328262982" />
		</plan>

	</person>

	<!-- ====================================================================== -->

	<person id="0018">
		<plan selected="yes">
			<act type="h" x="423763.53010654193" y="4503982.61161433" end_time="12:50:36" />
			<leg mode="car">
			</leg>
			<act type="w" x="445718.37910246366" y="4458666.536739145" end_time="16:02:41" />
			<leg mode="car">
			</leg>
			<act type="h" x="423763.53010654193" y="4503982.61161433" />
		</plan>

	</person>

	<!-- ====================================================================== -->

	<person id="0019">
		<plan selected="yes">
			<act type="h" x="423839.9939778383" y="4493116.674361637" end_time="13:40:21" />
			<leg mode="car">
			</leg>
			<act type="w" x="435467.2994484659" y="4466825.651232562" end_time="16:09:06" />
			<leg mode="car">
			</leg>
			<act type="h" x="423839.9939778383" y="4493116.674361637" />
		</plan>

	</person>

	<!-- ====================================================================== -->

	<person id="0020">
		<plan selected="yes">
			<act type="h" x="427801.5415704434" y="4507977.693746369" end_time="15:26:16" />
			<leg mode="car">
			</leg>
			<act type="w" x="429313.84314126195" y="4470166.512162426" end_time="15:51:57" />
			<leg mode="car">
			</leg>
			<act type="h" x="427801.5415704434" y="4507977.693746369" />
		</plan>

	</person>

	<!-- ====================================================================== -->

	<person id="0021">
		<plan selected="yes">
			<act type="h" x="419495.88706403336" y="4502296.866226242" end_time="15:31:24" />
			<leg mode="car">
			</leg>
			<act type="w" x="422074.33559277764" y="4465527.826116587" end_time="14:39:26" />
			<leg mode="car">
			</leg>
			<act type="h" x="419495.88706403336" y="4502296.866226242" />
		</plan>

	</person>

	<!-- ====================================================================== -->

	<person id="0011">
		<plan selected="yes">
			<act type="h" x="411806.0024376889" y="4506036.998776339" end_time="12:19:30" />
			<leg mode="car">
			</leg>
			<act type="w" x="424469.0038105604" y="4522774.989425931" end_time="12:29:02" />
			<leg mode="car">
			</leg>
			<act type="h" x="411806.0024376889" y="4506036.998776339" />
		</plan>

	</person>

<!-- ====================================================================== -->

	<person id="0012">
		<plan selected="yes">
			<act type="h" x="437272.96086045646" y="4462634.312323844" end_time="12:27:57" />
			<leg mode="car">
			</leg>
			<act type="w" x="431973.60172602715" y="4469431.307760986" end_time="14:32:09" />
			<leg mode="car">
			</leg>
			<act type="h" x="437272.96086045646" y="4462634.312323844" end_time="16:46:04" />
			<leg mode="car">
			</leg>
			<act type="w" x="406651.0082195947" y="4558377.9917089455" end_time="17:02:45" />
			<leg mode="car">
			</leg>
			<act type="h" x="437272.96086045646" y="4462634.312323844" />
		</plan>

	</person>

<!-- ====================================================================== -->

	<person id="0013">
		<plan selected="yes">
			<act type="h" x="419770.00825443596" y="4548076.99117598" end_time="07:43:04" />
			<leg mode="car">
			</leg>
			<act type="w" x="425314.00039034337" y="4538036.994786294" end_time="14:55:30" />
			<leg mode="car">
			</leg>
			<act type="h" x="419770.00825443596" y="4548076.99117598" />
		</plan>

	</person>

<!-- ====================================================================== -->

	<person id="0014">
		<plan selected="yes">
			<act type="h" x="424998.00159391336" y="4531026.98941407" end_time="09:14:20" />
			<leg mode="car" >
			</leg>
			<act type="w" x="408140.00427265547" y="4506428.99337611" end_time="20:08:02" />
			<leg mode="car" >
			</leg>
			<act type="h" x="424998.00159391336" y="4531026.98941407" />
		</plan>

	</person>

<!-- ====================================================================== -->

	<person id="0015">
		<plan selected="yes">
			<act type="h" x="415503.0015260048" y="4505559.998240209" end_time="09:14:20" />
			<leg mode="car">
			</leg>
			<act type="w" x="439453.3182908973" y="4455128.178639027" end_time="20:08:02" />
			<leg mode="car">
			</leg>
			<act type="h" x="415503.0015260048" y="4505559.998240209" />
		</plan>

	</person>

<!-- ====================================================================== -->

</population>
