<?xml version="1.0" encoding="UTF-8"?>
<!DOCTYPE network SYSTEM "http://www.matsim.org/files/dtd/network_v2.dtd">
<network>

<!-- ====================================================================== -->

	<nodes>
		<node id="1104384540" x="290541.53220780246" y="4644147.205852006" >
		</node>
		<node id="1104384609" x="291545.06601577514" y="4644352.992824198" >
		</node>
		<node id="1104384625" x="291484.8822327922" y="4644751.109178151" >
		</node>
		<node id="1104384627" x="290566.6610427977" y="4644018.370476912" >
		</node>
		<node id="1104384693" x="291604.4500714931" y="4644415.820206" >
		</node>
		<node id="1104384701" x="290714.71659037773" y="4644345.492415933" >
		</node>
		<node id="1107576969" x="292062.8852844294" y="4643936.472428445" >
		</node>
		<node id="1117936300" x="290521.13588380866" y="4643864.655934901" >
		</node>
		<node id="1300215130" x="291277.10338558594" y="4643537.939035734" >
		</node>
		<node id="1303805702" x="290867.55755023356" y="4643830.782144552" >
		</node>
		<node id="1334782068" x="291229.9609276828" y="4644399.906921143" >
		</node>
		<node id="1334782073" x="291150.16067201324" y="4644394.005637155" >
		</node>
		<node id="1335017539" x="291903.3175097876" y="4644179.447755144" >
		</node>
		<node id="1335017546" x="292180.19576264324" y="4644700.353997742" >
		</node>
		<node id="1335017548" x="292283.03899737506" y="4643874.078772077" >
		</node>
		<node id="1335017550" x="292210.5260043084" y="4643932.743305883" >
		</node>
		<node id="1335017553" x="292157.3297766888" y="4644690.365080656" >
		</node>
		<node id="1335017565" x="292209.8804204487" y="4643958.923074893" >
		</node>
		<node id="1335017567" x="292064.77916730667" y="4644107.296583027" >
		</node>
		<node id="1335017573" x="292210.37918877834" y="4643941.916135763" >
		</node>
		<node id="1335017585" x="292164.2705123716" y="4644697.263517978" >
		</node>
		<node id="1359720791" x="290610.42789891764" y="4643873.004875426" >
		</node>
		<node id="1363447880" x="292008.53262529394" y="4644029.370580928" >
		</node>
		<node id="1421392410" x="292405.3665005233" y="4644033.493153969" >
		</node>
		<node id="1421392413" x="292409.0575853839" y="4644038.241874254" >
		</node>
		<node id="1425153021" x="291010.0317469615" y="4643675.769987378" >
		</node>
		<node id="1662372508" x="291124.0765895943" y="4643745.677669972" >
		</node>
		<node id="1662372530" x="291201.3861457978" y="4643882.691338084" >
		</node>
		<node id="1662372532" x="291404.5430178244" y="4643883.54944542" >
		</node>
		<node id="1675888891" x="292063.0707700532" y="4644070.183370795" >
		</node>
		<node id="1751775421" x="292311.17058306804" y="4643781.84920525" >
		</node>
		<node id="1751775424" x="292295.3926848287" y="4643793.523665914" >
		</node>
		<node id="1751775428" x="292088.47526611655" y="4644354.665428827" >
		</node>
		<node id="1751775430" x="292097.14881223283" y="4644379.361242319" >
		</node>
		<node id="1892095393" x="291878.1372370373" y="4644552.707029042" >
		</node>
		<node id="1931979677" x="292341.47341004526" y="4644619.412023735" >
		</node>
		<node id="1931979688" x="292151.4234121152" y="4644567.890384322" >
		</node>
		<node id="1950436617" x="290492.33494525857" y="4644606.2459228225" >
		</node>
		<node id="1962391885" x="291997.211676875" y="4644014.632140773" >
		</node>
		<node id="2000774899" x="292006.87439054775" y="4644536.446057048" >
		</node>
		<node id="2006212852" x="290793.3919684717" y="4644000.745718517" >
		</node>
		<node id="2011422405" x="292278.5851409168" y="4644243.061833665" >
		</node>
		<node id="2026732006" x="291399.8285475657" y="4643874.219148715" >
		</node>
		<node id="2026732018" x="290798.90883088985" y="4644335.8895684425" >
		</node>
		<node id="2073646457" x="290730.3208694155" y="4644468.393157656" >
		</node>
		<node id="2073646459" x="290752.55989334115" y="4644497.289147383" >
		</node>
		<node id="2183405374" x="291056.33380698285" y="4644649.7517917445" >
		</node>
		<node id="2183405377" x="291026.01101100486" y="4644718.147022795" >
		</node>
		<node id="2207562747" x="291689.63611242827" y="4644518.844616175" >
		</node>
		<node id="2207562753" x="291614.4908441233" y="4644587.828694337" >
		</node>
		<node id="2215316181" x="291680.3997326364" y="4644209.717182126" >
		</node>
		<node id="2215316182" x="291691.8531576699" y="4644244.533245494" >
		</node>
		<node id="2215316183" x="291703.43340119603" y="4644263.008852122" >
		</node>
		<node id="2215316184" x="291733.47203902324" y="4644301.303293633" >
		</node>
		<node id="255398855" x="292346.21857744077" y="4643812.96497509" >
		</node>
		<node id="255402195" x="292166.7954972759" y="4644275.102943304" >
		</node>
		<node id="255402205" x="292344.00082685816" y="4644491.200915345" >
		</node>
		<node id="255402206" x="292330.52496284357" y="4644467.712092495" >
		</node>
		<node id="255402251" x="292073.7580070412" y="4644201.419955504" >
		</node>
		<node id="255402345" x="292104.91260317527" y="4644186.572278262" >
		</node>
		<node id="257492473" x="291907.7930130463" y="4643804.483586888" >
		</node>
		<node id="257495832" x="291705.87867021014" y="4643594.542157112" >
		</node>
		<node id="259062186" x="292159.8820499807" y="4644626.110546136" >
		</node>
		<node id="259062188" x="292164.3362671546" y="4644667.166511154" >
		</node>
		<node id="259282253" x="290705.1603172326" y="4643859.223256676" >
		</node>
		<node id="259282256" x="290796.0329824635" y="4643820.051002238" >
		</node>
		<node id="259282278" x="291377.4345844794" y="4643724.6335819485" >
		</node>
		<node id="259282290" x="291632.2022381008" y="4643916.990795633" >
		</node>
		<node id="259282778" x="290593.1949107301" y="4643872.390139893" >
		</node>
		<node id="259282977" x="290691.6127846046" y="4643899.197510123" >
		</node>
		<node id="259282984" x="290850.15095651994" y="4643863.756936051" >
		</node>
		<node id="259282989" x="291021.13695199834" y="4644007.148047618" >
		</node>
		<node id="259283339" x="291034.72348845535" y="4643998.935756528" >
		</node>
		<node id="259283342" x="291077.349513663" y="4644038.3468293" >
		</node>
		<node id="259283343" x="291073.80653766234" y="4644052.220607668" >
		</node>
		<node id="259283345" x="291059.6270340176" y="4644058.894372241" >
		</node>
		<node id="259283347" x="291010.3787468789" y="4644020.089341199" >
		</node>
		<node id="259283640" x="291201.12736607494" y="4644136.053019792" >
		</node>
		<node id="259283661" x="291822.95926735003" y="4644119.688393258" >
		</node>
		<node id="259283953" x="292079.3789710278" y="4644310.133460231" >
		</node>
		<node id="259284959" x="292378.047135985" y="4644057.495928055" >
		</node>
		<node id="259285095" x="292313.92692858004" y="4644240.561899357" >
		</node>
		<node id="259285244" x="292298.2431566606" y="4644248.888552538" >
		</node>
		<node id="259285903" x="290809.0545875499" y="4644343.337021329" >
		</node>
		<node id="259285904" x="290801.64817213773" y="4644347.744856813" >
		</node>
		<node id="259285913" x="290941.2110489664" y="4643913.333533342" >
		</node>
		<node id="259286247" x="291080.2971085197" y="4643771.269608876" >
		</node>
		<node id="259287677" x="292043.50392860593" y="4644226.899177771" >
		</node>
		<node id="259287681" x="291810.9429603764" y="4644530.81490507" >
		</node>
		<node id="259287686" x="291639.96999022213" y="4644595.472167086" >
		</node>
		<node id="259287806" x="291612.2831669487" y="4644623.200880885" >
		</node>
		<node id="259287807" x="291600.1094766353" y="4644629.192439152" >
		</node>
		<node id="259287808" x="291588.7595402689" y="4644636.104501774" >
		</node>
		<node id="259287809" x="291602.6813738487" y="4644591.809140477" >
		</node>
		<node id="259287813" x="291622.91099839285" y="4644590.248989602" >
		</node>
		<node id="259288126" x="291562.2285392111" y="4644743.394138402" >
		</node>
		<node id="259289916" x="291303.9103565676" y="4644686.996472123" >
		</node>
		<node id="259290078" x="291469.43617804453" y="4644526.248021838" >
		</node>
		<node id="259290083" x="291527.1308367983" y="4644494.737684987" >
		</node>
		<node id="259290516" x="291871.8315345056" y="4644206.208515616" >
		</node>
		<node id="259291284" x="292060.40092800267" y="4644177.7836123435" >
		</node>
		<node id="259291287" x="292057.64063642675" y="4644115.784936243" >
		</node>
		<node id="259291470" x="291868.578192989" y="4644176.175319777" >
		</node>
		<node id="259291741" x="291865.2954045086" y="4644142.019909596" >
		</node>
		<node id="259291955" x="291913.7236183927" y="4644170.596829143" >
		</node>
		<node id="259292278" x="291627.26493283815" y="4644230.968011884" >
		</node>
		<node id="259292651" x="291453.5886110881" y="4644370.01323904" >
		</node>
		<node id="259292652" x="291430.4431417626" y="4644399.498649789" >
		</node>
		<node id="259292654" x="291345.40282770013" y="4644511.629650375" >
		</node>
		<node id="259292659" x="291265.3627569085" y="4644618.436087678" >
		</node>
		<node id="259293975" x="291339.5410238119" y="4644790.77241222" >
		</node>
		<node id="259294800" x="291250.1937331336" y="4644867.3794262465" >
		</node>
		<node id="259294887" x="291121.4903332281" y="4644721.963171196" >
		</node>
		<node id="259294890" x="291157.96919708484" y="4644709.377284928" >
		</node>
		<node id="259294892" x="291172.74563492683" y="4644715.433270119" >
		</node>
		<node id="259294897" x="291191.886091875" y="4644738.386914999" >
		</node>
		<node id="259296485" x="291199.94402185146" y="4644702.498012572" >
		</node>
		<node id="259296693" x="291171.5165229336" y="4644588.330959805" >
		</node>
		<node id="259296695" x="291122.6091415094" y="4644299.528310824" >
		</node>
		<node id="259298282" x="291214.8577644397" y="4644592.058393715" >
		</node>
		<node id="259299227" x="290721.04729480925" y="4644334.714768112" >
		</node>
		<node id="259299230" x="290793.56775934726" y="4644349.838701545" >
		</node>
		<node id="259299770" x="291218.1978887622" y="4643876.885209629" >
		</node>
		<node id="259300311" x="291211.5362090103" y="4643893.106545193" >
		</node>
		<node id="259301065" x="290836.0437496475" y="4644474.960261927" >
		</node>
		<node id="259301190" x="290959.63299063174" y="4644480.6032179445" >
		</node>
		<node id="259301628" x="290694.26945653564" y="4644782.334688848" >
		</node>
		<node id="259302004" x="290975.1399247237" y="4644334.5600079205" >
		</node>
		<node id="259302010" x="291070.2757321909" y="4644416.847251564" >
		</node>
		<node id="259326583" x="292448.63146713667" y="4644380.099877102" >
		</node>
		<node id="259326595" x="292430.72539324174" y="4644360.074284979" >
		</node>
		<node id="259608176" x="291921.28880563844" y="4644810.986156508" >
		</node>
		<node id="259609558" x="291589.7405515503" y="4644528.919791991" >
		</node>
		<node id="259609758" x="291625.18473256717" y="4644396.652695554" >
		</node>
		<node id="259609941" x="291683.86235461134" y="4644475.338046542" >
		</node>
		<node id="259610311" x="291789.10650777014" y="4644410.696163724" >
		</node>
		<node id="259610321" x="291717.66358562605" y="4644314.413710795" >
		</node>
		<node id="259610325" x="291851.3548405064" y="4644490.367259319" >
		</node>
		<node id="259610392" x="292038.6794541038" y="4644558.342091499" >
		</node>
		<node id="259610393" x="292022.6688919937" y="4644548.097364831" >
		</node>
		<node id="259610394" x="291943.285979449" y="4644486.896992399" >
		</node>
		<node id="259610395" x="291888.6679366698" y="4644442.431276163" >
		</node>
		<node id="259610468" x="292034.7822211834" y="4644533.506550017" >
		</node>
		<node id="259610473" x="292130.87650108285" y="4644472.927323244" >
		</node>
		<node id="259610474" x="292090.661931026" y="4644381.4625383" >
		</node>
		<node id="259610508" x="291882.1393118625" y="4644550.500486992" >
		</node>
		<node id="259610509" x="291832.59432188957" y="4644576.645827508" >
		</node>
		<node id="259610518" x="292001.6669515264" y="4644575.728813793" >
		</node>
		<node id="261730834" x="292488.02695973316" y="4643936.893412439" >
		</node>
		<node id="261730900" x="292435.8978628277" y="4643890.972765704" >
		</node>
		<node id="261731027" x="292340.19441939355" y="4644001.0790979555" >
		</node>
		<node id="261731270" x="292400.8831444194" y="4644029.467720292" >
		</node>
		<node id="261732454" x="292056.9532624696" y="4643956.416718656" >
		</node>
		<node id="261732835" x="292143.4300103887" y="4643794.309939809" >
		</node>
		<node id="2623977405" x="291511.9927433609" y="4644019.19248507" >
		</node>
		<node id="280135454" x="291874.3614039285" y="4643828.356120359" >
		</node>
		<node id="2847324461" x="292081.933565179" y="4644356.879469289" >
		</node>
		<node id="291638146" x="291774.2413436697" y="4644675.764869804" >
		</node>
		<node id="291638400" x="291579.1435410689" y="4644164.209294655" >
		</node>
		<node id="291638401" x="291563.2604486217" y="4644136.858170012" >
		</node>
		<node id="291638440" x="291399.10258666996" y="4644314.3558882885" >
		</node>
		<node id="291638484" x="291524.01267612376" y="4643836.734907712" >
		</node>
		<node id="291638505" x="291118.5765968445" y="4644274.719267921" >
		</node>
		<node id="291638512" x="291135.9488206454" y="4644280.1099182395" >
		</node>
		<node id="291638576" x="292021.2052007726" y="4644256.768888463" >
		</node>
		<node id="291638581" x="292075.9076408569" y="4644257.301907331" >
		</node>
		<node id="292473204" x="292085.54203384445" y="4643883.898925571" >
		</node>
		<node id="292474129" x="292057.20769434585" y="4644107.229174543" >
		</node>
		<node id="292474408" x="292058.34974208474" y="4643972.656982516" >
		</node>
		<node id="292474966" x="292166.8638070278" y="4644001.867207046" >
		</node>
		<node id="292474968" x="292319.51283790544" y="4643992.626039438" >
		</node>
		<node id="294007570" x="292317.3319816437" y="4644087.842442533" >
		</node>
		<node id="294007595" x="292380.1755992681" y="4644208.475494576" >
		</node>
		<node id="294008018" x="292382.5038912558" y="4644327.653909442" >
		</node>
		<node id="294008134" x="292499.50597593404" y="4644286.8177948175" >
		</node>
		<node id="294009576" x="290685.3171472417" y="4644653.39227282" >
		</node>
		<node id="294010216" x="290734.2071135278" y="4644732.5143139595" >
		</node>
		<node id="294010277" x="290865.86721001856" y="4644827.81503037" >
		</node>
		<node id="294010453" x="290916.7937860536" y="4644481.84136997" >
		</node>
		<node id="294010583" x="290898.7609670387" y="4644582.038086273" >
		</node>
		<node id="294011076" x="290805.472281754" y="4644360.079434079" >
		</node>
		<node id="294013361" x="290613.24287137226" y="4644532.210926606" >
		</node>
		<node id="294014749" x="290489.44706203963" y="4644360.232265411" >
		</node>
		<node id="294014785" x="290608.29154888086" y="4644485.013088924" >
		</node>
		<node id="294014786" x="290591.96269158693" y="4644354.77665474" >
		</node>
		<node id="294014922" x="290700.07664335356" y="4644299.024453313" >
		</node>
		<node id="294015063" x="290530.0853326878" y="4644305.978108049" >
		</node>
		<node id="294015083" x="290649.748159235" y="4644300.206888564" >
		</node>
		<node id="294015264" x="290702.3968869565" y="4644241.4102064455" >
		</node>
		<node id="294015329" x="290761.52362620493" y="4644057.273771525" >
		</node>
		<node id="294015409" x="290612.296651204" y="4644028.839480381" >
		</node>
		<node id="294015413" x="290596.6034404756" y="4644138.214622775" >
		</node>
		<node id="294015415" x="290681.3540078964" y="4644142.13037993" >
		</node>
		<node id="294015511" x="290714.4806936066" y="4644142.177184886" >
		</node>
		<node id="294015848" x="290683.36045020097" y="4644041.171469614" >
		</node>
		<node id="294016094" x="290800.98856514966" y="4643985.585524824" >
		</node>
		<node id="294016366" x="290817.8789060539" y="4643945.524226041" >
		</node>
		<node id="294016393" x="290925.13625543314" y="4643944.746410819" >
		</node>
		<node id="294017360" x="291295.7420774806" y="4644321.002648809" >
		</node>
		<node id="294018420" x="291391.6445160601" y="4644031.159183085" >
		</node>
		<node id="294018564" x="291436.18883975677" y="4644158.356752668" >
		</node>
		<node id="294019157" x="291349.4398821817" y="4643906.238069775" >
		</node>
		<node id="294019369" x="291282.3839087677" y="4644007.1836145865" >
		</node>
		<node id="294019707" x="291280.1391060147" y="4643905.027806085" >
		</node>
		<node id="298576880" x="291352.31447780237" y="4644564.704715507" >
		</node>
		<node id="298576965" x="291294.30501545826" y="4644639.423927493" >
		</node>
		<node id="298576971" x="291244.5724127833" y="4644704.298462998" >
		</node>
		<node id="299615631" x="290816.8908978838" y="4643823.404606166" >
		</node>
		<node id="302308582" x="290434.35577597877" y="4644392.685785483" >
		</node>
		<node id="309054038" x="291175.2848934063" y="4644178.543495324" >
		</node>
		<node id="309054043" x="291274.86566956097" y="4644234.163822934" >
		</node>
		<node id="309054216" x="291371.3387326682" y="4644349.367099797" >
		</node>
		<node id="309054336" x="291326.1063052323" y="4644182.070456026" >
		</node>
		<node id="309054340" x="291477.93292530207" y="4644515.718718442" >
		</node>
		<node id="309054344" x="291248.405476265" y="4644338.974373699" >
		</node>
		<node id="309054361" x="291289.7149447899" y="4644178.238095614" >
		</node>
		<node id="309055372" x="291705.1585705007" y="4644800.90446584" >
		</node>
		<node id="309055380" x="291569.1265293417" y="4644921.385041101" >
		</node>
		<node id="309055487" x="292134.02838086867" y="4644249.000229536" >
		</node>
		<node id="309671331" x="292288.9847551811" y="4644270.607978977" >
		</node>
		<node id="309672108" x="292108.55136069766" y="4644228.963450586" >
		</node>
		<node id="309672498" x="292075.4426285814" y="4644244.812939468" >
		</node>
		<node id="309673172" x="292224.30171947426" y="4644134.792985662" >
		</node>
		<node id="309673604" x="292284.9923184311" y="4644255.83274989" >
		</node>
		<node id="3149967407" x="291646.2349479347" y="4643919.724496079" >
		</node>
		<node id="413502156" x="291942.1831477807" y="4644362.4923641" >
		</node>
		<node id="413502157" x="291897.37399536866" y="4644429.106923076" >
		</node>
		<node id="413502158" x="291872.3385934432" y="4644311.371069792" >
		</node>
		<node id="413502159" x="291836.6746515684" y="4644350.179110627" >
		</node>
		<node id="413506142" x="292169.0872691511" y="4644249.030585909" >
		</node>
		<node id="413506161" x="292192.6142595091" y="4644248.086948582" >
		</node>
		<node id="448962645" x="291447.4655739664" y="4644493.663553962" >
		</node>
		<node id="611831885" x="290542.504212764" y="4643867.582490668" >
		</node>
		<node id="611831889" x="292004.5441308151" y="4644011.35024014" >
		</node>
		<node id="617834578" x="292233.35077912454" y="4643716.087586703" >
		</node>
		<node id="617837518" x="292225.21399115294" y="4643948.250468831" >
		</node>
		<node id="617837526" x="292271.9820888437" y="4643863.533057865" >
		</node>
		<node id="617837529" x="292316.30004341167" y="4643816.784209395" >
		</node>
		<node id="617837531" x="292329.84458001715" y="4643829.235483271" >
		</node>
		<node id="617837540" x="292227.9255721562" y="4643937.0911587365" >
		</node>
		<node id="6267765149" x="292089.6811373794" y="4644194.186021998" >
		</node>
		<node id="6384884793" x="290953.3845195059" y="4644125.7102432195" >
		</node>
		<node id="6384884795" x="290986.55692647456" y="4644152.429392182" >
		</node>
		<node id="6390363641" x="290993.17642486515" y="4644554.977257233" >
		</node>
		<node id="6390363642" x="290967.53965386096" y="4644606.053400389" >
		</node>
		<node id="6931678263" x="292526.27395498846" y="4644475.907905394" >
		</node>
		<node id="745446809" x="291323.04251237784" y="4643761.404445091" >
		</node>
		<node id="745446843" x="291571.08896575164" y="4643872.58421549" >
		</node>
		<node id="820606460" x="291255.0170513763" y="4644889.464705811" >
		</node>
		<node id="8311098861" x="291865.2381386173" y="4643832.279599572" >
		</node>
		<node id="903975399" x="291596.15845504194" y="4644606.536851542" >
		</node>
		<node id="903975423" x="291631.52832625655" y="4644608.166777045" >
		</node>
	</nodes>

<!-- ====================================================================== -->

	<links capperiod="01:00:00" effectivecellsize="7.5" effectivelanewidth="3.75">
		<link id="1" from="294009576" to="294013361" length="206.68883668496784" freespeed="4.166666666666667" capacity="600.0" permlanes="1.0" oneway="1" modes="car" >
			<attributes>
				<attribute name="origid" class="java.lang.String">26801561</attribute>
				<attribute name="type" class="java.lang.String">residential</attribute>
			</attributes>
		</link>
		<link id="10" from="309054336" to="309054361" length="36.62699601097068" freespeed="13.88888888888889" capacity="1200.0" permlanes="2.0" oneway="1" modes="car" >
			<attributes>
				<attribute name="origid" class="java.lang.String">121466672</attribute>
				<attribute name="type" class="java.lang.String">tertiary</attribute>
			</attributes>
		</link>
		<link id="100" from="294018420" to="745446843" length="243.126854940391" freespeed="4.166666666666667" capacity="600.0" permlanes="1.0" oneway="1" modes="car" >
			<attributes>
				<attribute name="origid" class="java.lang.String">26593218</attribute>
				<attribute name="type" class="java.lang.String">residential</attribute>
			</attributes>
		</link>
		<link id="101" from="1359720791" to="259282977" length="95.65753666934894" freespeed="13.88888888888889" capacity="1200.0" permlanes="2.0" oneway="1" modes="car" >
			<attributes>
				<attribute name="origid" class="java.lang.String">23920437</attribute>
				<attribute name="type" class="java.lang.String">tertiary</attribute>
			</attributes>
		</link>
		<link id="102" from="299615631" to="1303805702" length="52.32473574286027" freespeed="13.88888888888889" capacity="600.0" permlanes="1.0" oneway="1" modes="car" >
			<attributes>
				<attribute name="origid" class="java.lang.String">202304087</attribute>
				<attribute name="type" class="java.lang.String">tertiary</attribute>
			</attributes>
		</link>
		<link id="103" from="1303805702" to="299615631" length="52.32473574286027" freespeed="13.88888888888889" capacity="600.0" permlanes="1.0" oneway="1" modes="car" >
			<attributes>
				<attribute name="origid" class="java.lang.String">202304087</attribute>
				<attribute name="type" class="java.lang.String">tertiary</attribute>
			</attributes>
		</link>
		<link id="105" from="820606460" to="259294800" length="22.60583934090185" freespeed="13.88888888888889" capacity="600.0" permlanes="1.0" oneway="1" modes="car" >
			<attributes>
				<attribute name="origid" class="java.lang.String">68025430</attribute>
				<attribute name="type" class="java.lang.String">residential</attribute>
			</attributes>
		</link>
		<link id="106" from="259294800" to="820606460" length="22.60583934090185" freespeed="13.88888888888889" capacity="600.0" permlanes="1.0" oneway="1" modes="car" >
			<attributes>
				<attribute name="origid" class="java.lang.String">68025430</attribute>
				<attribute name="type" class="java.lang.String">residential</attribute>
			</attributes>
		</link>
		<link id="107" from="259294800" to="259289916" length="207.72537211365332" freespeed="13.88888888888889" capacity="600.0" permlanes="1.0" oneway="1" modes="car" >
			<attributes>
				<attribute name="origid" class="java.lang.String">68025430</attribute>
				<attribute name="type" class="java.lang.String">residential</attribute>
			</attributes>
		</link>
		<link id="108" from="259289916" to="259294800" length="207.72537211365332" freespeed="13.88888888888889" capacity="600.0" permlanes="1.0" oneway="1" modes="car" >
			<attributes>
				<attribute name="origid" class="java.lang.String">68025430</attribute>
				<attribute name="type" class="java.lang.String">residential</attribute>
			</attributes>
		</link>
		<link id="109" from="309673172" to="255402345" length="130.28648934961922" freespeed="13.88888888888889" capacity="1000.0" permlanes="1.0" oneway="1" modes="car" >
			<attributes>
				<attribute name="origid" class="java.lang.String">184551771</attribute>
				<attribute name="type" class="java.lang.String">secondary</attribute>
			</attributes>
		</link>
		<link id="11" from="309054361" to="309054336" length="36.62699601097068" freespeed="13.88888888888889" capacity="1200.0" permlanes="2.0" oneway="1" modes="car" >
			<attributes>
				<attribute name="origid" class="java.lang.String">121466672</attribute>
				<attribute name="type" class="java.lang.String">tertiary</attribute>
			</attributes>
		</link>
		<link id="110" from="294016366" to="294016094" length="43.481053213115906" freespeed="4.166666666666667" capacity="600.0" permlanes="1.0" oneway="1" modes="car" >
			<attributes>
				<attribute name="origid" class="java.lang.String">192110354</attribute>
				<attribute name="type" class="java.lang.String">residential</attribute>
			</attributes>
		</link>
		<link id="111" from="294016094" to="294016366" length="43.481053213115906" freespeed="4.166666666666667" capacity="600.0" permlanes="1.0" oneway="1" modes="car" >
			<attributes>
				<attribute name="origid" class="java.lang.String">192110354</attribute>
				<attribute name="type" class="java.lang.String">residential</attribute>
			</attributes>
		</link>
		<link id="113" from="259282984" to="259285913" length="104.13678046848216" freespeed="13.88888888888889" capacity="1200.0" permlanes="2.0" oneway="1" modes="car" >
			<attributes>
				<attribute name="origid" class="java.lang.String">192110356</attribute>
				<attribute name="type" class="java.lang.String">tertiary</attribute>
			</attributes>
		</link>
		<link id="114" from="259285913" to="259282984" length="104.13678046848216" freespeed="13.88888888888889" capacity="1200.0" permlanes="2.0" oneway="1" modes="car" >
			<attributes>
				<attribute name="origid" class="java.lang.String">192110356</attribute>
				<attribute name="type" class="java.lang.String">tertiary</attribute>
			</attributes>
		</link>
		<link id="115" from="617837529" to="1751775424" length="31.27571783228735" freespeed="4.166666666666667" capacity="600.0" permlanes="1.0" oneway="1" modes="car" >
			<attributes>
				<attribute name="origid" class="java.lang.String">48656014</attribute>
				<attribute name="type" class="java.lang.String">residential</attribute>
			</attributes>
		</link>
		<link id="116" from="255398855" to="617837531" length="23.083281563930864" freespeed="4.166666666666667" capacity="1200.0" permlanes="2.0" oneway="1" modes="car" >
			<attributes>
				<attribute name="origid" class="java.lang.String">48656015</attribute>
				<attribute name="type" class="java.lang.String">residential</attribute>
			</attributes>
		</link>
		<link id="117" from="259301065" to="294010453" length="82.18831195256188" freespeed="4.166666666666667" capacity="600.0" permlanes="1.0" oneway="1" modes="car" >
			<attributes>
				<attribute name="origid" class="java.lang.String">23920896</attribute>
				<attribute name="type" class="java.lang.String">residential</attribute>
			</attributes>
		</link>
		<link id="118" from="294010453" to="259301190" length="42.85709357066938" freespeed="4.166666666666667" capacity="600.0" permlanes="1.0" oneway="1" modes="car" >
			<attributes>
				<attribute name="origid" class="java.lang.String">23920896</attribute>
				<attribute name="type" class="java.lang.String">residential</attribute>
			</attributes>
		</link>
		<link id="119" from="291638512" to="259296695" length="24.131355086037832" freespeed="13.88888888888889" capacity="1200.0" permlanes="2.0" oneway="1" modes="car" >
			<attributes>
				<attribute name="origid" class="java.lang.String">190502711</attribute>
				<attribute name="type" class="java.lang.String">tertiary</attribute>
			</attributes>
		</link>
		<link id="12" from="309054361" to="259283640" length="98.75790020273467" freespeed="13.88888888888889" capacity="1200.0" permlanes="2.0" oneway="1" modes="car" >
			<attributes>
				<attribute name="origid" class="java.lang.String">121466672</attribute>
				<attribute name="type" class="java.lang.String">tertiary</attribute>
			</attributes>
		</link>
		<link id="120" from="8311098861" to="280135454" length="9.931148571658433" freespeed="13.88888888888889" capacity="600.0" permlanes="1.0" oneway="1" modes="car" >
			<attributes>
				<attribute name="origid" class="java.lang.String">973540969</attribute>
				<attribute name="type" class="java.lang.String">tertiary</attribute>
			</attributes>
		</link>
		<link id="121" from="280135454" to="8311098861" length="9.931148571658433" freespeed="13.88888888888889" capacity="600.0" permlanes="1.0" oneway="1" modes="car" >
			<attributes>
				<attribute name="origid" class="java.lang.String">973540969</attribute>
				<attribute name="type" class="java.lang.String">tertiary</attribute>
			</attributes>
		</link>
		<link id="122" from="1751775421" to="1751775424" length="19.627406977356838" freespeed="4.166666666666667" capacity="600.0" permlanes="1.0" oneway="1" modes="car" >
			<attributes>
				<attribute name="origid" class="java.lang.String">163507662</attribute>
				<attribute name="type" class="java.lang.String">residential</attribute>
			</attributes>
		</link>
		<link id="123" from="259299227" to="1104384701" length="12.499420432873178" freespeed="4.166666666666667" capacity="600.0" permlanes="1.0" oneway="1" modes="car" >
			<attributes>
				<attribute name="origid" class="java.lang.String">26801642</attribute>
				<attribute name="type" class="java.lang.String">residential</attribute>
			</attributes>
		</link>
		<link id="124" from="1104384701" to="259299227" length="12.499420432873178" freespeed="4.166666666666667" capacity="600.0" permlanes="1.0" oneway="1" modes="car" >
			<attributes>