<?xml version="1.0" encoding="UTF-8"?>
<!DOCTYPE network SYSTEM "http://www.matsim.org/files/dtd/network_v2.dtd">
<network>

<!-- ====================================================================== -->

	<nodes>
		<node id="105523997" x="-81.628284" y="41.5377567" >
		</node>
		<node id="105528977" x="-81.62877" y="41.533357" >
		</node>
		<node id="105528989" x="-81.6277473" y="41.5351571" >
		</node>
		<node id="105531194" x="-81.6260396" y="41.5339791" >
		</node>
		<node id="105533847" x="-81.626284" y="41.536283" >
		</node>
		<node id="105533849" x="-81.625406" y="41.536541" >
		</node>
		<node id="105533851" x="-81.624516" y="41.536801" >
		</node>
		<node id="105533853" x="-81.623635" y="41.537043" >
		</node>
		<node id="105536446" x="-81.626397" y="41.538494" >
		</node>
		<node id="105536448" x="-81.625599" y="41.538902" >
		</node>
		<node id="105536450" x="-81.624785" y="41.539298" >
		</node>
		<node id="105536657" x="-81.6155704" y="41.543977" >
		</node>
		<node id="105541320" x="-81.617229" y="41.540814" >
		</node>
		<node id="105541322" x="-81.617228" y="41.540228" >
		</node>
		<node id="105541324" x="-81.6172359" y="41.5379996" >
		</node>
		<node id="105541326" x="-81.617242" y="41.535873" >
		</node>
		<node id="105541328" x="-81.617242" y="41.535054" >
		</node>
		<node id="105541330" x="-81.617242" y="41.534267" >
		</node>
		<node id="105541384" x="-81.617493" y="41.54342" >
		</node>
		<node id="105541386" x="-81.617497" y="41.54154" >
		</node>
		<node id="105541388" x="-81.617484" y="41.540814" >
		</node>
		<node id="105545622" x="-81.607213" y="41.533689" >
		</node>
		<node id="105545633" x="-81.6037837" y="41.5336555" >
		</node>
		<node id="105556303" x="-81.622616" y="41.530022" >
		</node>
		<node id="105579559" x="-81.622237" y="41.541163" >
		</node>
		<node id="105579560" x="-81.621957" y="41.538766" >
		</node>
		<node id="105581776" x="-81.6226116" y="41.5355447" >
		</node>
		<node id="105581778" x="-81.622616" y="41.533398" >
		</node>
		<node id="105581785" x="-81.622818" y="41.5354504" >
		</node>
		<node id="105581787" x="-81.623452" y="41.536714" >
		</node>
		<node id="105581789" x="-81.623781" y="41.537343" >
		</node>
		<node id="105581791" x="-81.62421" y="41.538182" >
		</node>
		<node id="105581795" x="-81.625027" y="41.540172" >
		</node>
		<node id="105583707" x="-81.624432" y="41.540333" >
		</node>
		<node id="105583709" x="-81.623433" y="41.538406" >
		</node>
		<node id="105588770" x="-81.607391" y="41.534516" >
		</node>
		<node id="105588774" x="-81.6035" y="41.534517" >
		</node>
		<node id="105588784" x="-81.6202161" y="41.5366387" >
		</node>
		<node id="105588788" x="-81.619611" y="41.535063" >
		</node>
		<node id="105588790" x="-81.619614" y="41.534267" >
		</node>
		<node id="105592167" x="-81.6059916" y="41.540943" >
		</node>
		<node id="105592170" x="-81.605924" y="41.53769" >
		</node>
		<node id="105594199" x="-81.6155643" y="41.542298" >
		</node>
		<node id="105594201" x="-81.614754" y="41.542297" >
		</node>
		<node id="105594203" x="-81.613184" y="41.542288" >
		</node>
		<node id="105594845" x="-81.6155487" y="41.538062" >
		</node>
		<node id="105594849" x="-81.61283" y="41.538046" >
		</node>
		<node id="105594853" x="-81.6118617" y="41.5383556" >
		</node>
		<node id="105594855" x="-81.611042" y="41.538345" >
		</node>
		<node id="105594857" x="-81.610881" y="41.538345" >
		</node>
		<node id="105594859" x="-81.609925" y="41.538345" >
		</node>
		<node id="105598237" x="-81.618406" y="41.540847" >
		</node>
		<node id="105598243" x="-81.6155588" y="41.540814" >
		</node>
		<node id="105598250" x="-81.620933" y="41.540775" >
		</node>
		<node id="105598252" x="-81.619465" y="41.540791" >
		</node>
		<node id="105598254" x="-81.618406" y="41.540791" >
		</node>
		<node id="105599623" x="-81.609897" y="41.545052" >
		</node>
		<node id="105599626" x="-81.609911" y="41.541481" >
		</node>
		<node id="105599628" x="-81.609908" y="41.540917" >
		</node>
		<node id="105599634" x="-81.609938" y="41.537276" >
		</node>
		<node id="105600267" x="-81.6155325" y="41.5336571" >
		</node>
		<node id="105600269" x="-81.610229" y="41.533657" >
		</node>
		<node id="105604801" x="-81.606391" y="41.546275" >
		</node>
		<node id="105604825" x="-81.606463" y="41.540876" >
		</node>
		<node id="105613014" x="-81.6155476" y="41.530889" >
		</node>
		<node id="105613146" x="-81.6038929" y="41.5354287" >
		</node>
		<node id="105615071" x="-81.6155351" y="41.5343561" >
		</node>
		<node id="105615072" x="-81.610411" y="41.534356" >
		</node>
		<node id="105615075" x="-81.621423" y="41.534271" >
		</node>
		<node id="105615077" x="-81.6155347" y="41.5342591" >
		</node>
		<node id="105619186" x="-81.625732" y="41.535196" >
		</node>
		<node id="105619188" x="-81.6252741" y="41.5343287" >
		</node>
		<node id="105624121" x="-81.618954" y="41.535882" >
		</node>
		<node id="105624123" x="-81.618312" y="41.535871" >
		</node>
		<node id="105627392" x="-81.6276262" y="41.5350063" >
		</node>
		<node id="105629752" x="-81.6210136" y="41.5422931" >
		</node>
		<node id="105629756" x="-81.620998" y="41.54209" >
		</node>
		<node id="105629759" x="-81.620976" y="41.541628" >
		</node>
		<node id="105629761" x="-81.620866" y="41.538754" >
		</node>
		<node id="105629763" x="-81.6207685" y="41.5363864" >
		</node>
		<node id="105629798" x="-81.6210003" y="41.5362805" >
		</node>
		<node id="105629804" x="-81.620415" y="41.534972" >
		</node>
		<node id="105630656" x="-81.621413" y="41.53339" >
		</node>
		<node id="105630660" x="-81.6155315" y="41.5333761" >
		</node>
		<node id="105633162" x="-81.6155684" y="41.543422" >
		</node>
		<node id="105633164" x="-81.6155616" y="41.541573" >
		</node>
		<node id="105633165" x="-81.6155566" y="41.540219" >
		</node>
		<node id="105633166" x="-81.6155513" y="41.5387694" >
		</node>
		<node id="105633167" x="-81.615546" y="41.537321" >
		</node>
		<node id="105633168" x="-81.6155433" y="41.5365791" >
		</node>
		<node id="105633169" x="-81.6155405" y="41.5358341" >
		</node>
		<node id="105633170" x="-81.6155378" y="41.5351021" >
		</node>
		<node id="105634711" x="-81.612918" y="41.538524" >
		</node>
		<node id="105634717" x="-81.613298" y="41.538243" >
		</node>
		<node id="105635134" x="-81.610948" y="41.541481" >
		</node>
		<node id="105635139" x="-81.611622" y="41.541199" >
		</node>
		<node id="105635320" x="-81.6147641" y="41.5414643" >
		</node>
		<node id="105639181" x="-81.6145538" y="41.5392244" >
		</node>
		<node id="105639185" x="-81.613525" y="41.538283" >
		</node>
		<node id="105639191" x="-81.612256" y="41.537337" >
		</node>
		<node id="105639205" x="-81.611707" y="41.536579" >
		</node>
		<node id="105639211" x="-81.611553" y="41.535838" >
		</node>
		<node id="105639217" x="-81.611351" y="41.535102" >
		</node>
		<node id="105639245" x="-81.609371" y="41.528765" >
		</node>
		<node id="105643346" x="-81.622799" y="41.537972" >
		</node>
		<node id="105643352" x="-81.6218606" y="41.5358876" >
		</node>
		<node id="105643354" x="-81.6217027" y="41.5359598" >
		</node>
		<node id="105648735" x="-81.626515" y="41.53204" >
		</node>
		<node id="105649854" x="-81.605784" y="41.546221" >
		</node>
		<node id="105649857" x="-81.605795" y="41.540967" >
		</node>
		<node id="105650597" x="-81.610638" y="41.545042" >
		</node>
		<node id="105651920" x="-81.619479" y="41.542628" >
		</node>
		<node id="105651921" x="-81.618417" y="41.5431559" >
		</node>
		<node id="105651930" x="-81.611972" y="41.543428" >
		</node>
		<node id="105652538" x="-81.608835" y="41.533729" >
		</node>
		<node id="105652541" x="-81.60723" y="41.533729" >
		</node>
		<node id="105659800" x="-81.61022" y="41.537518" >
		</node>
		<node id="105659802" x="-81.610221" y="41.537276" >
		</node>
		<node id="105659847" x="-81.608328" y="41.528318" >
		</node>
		<node id="105661528" x="-81.613187" y="41.542876" >
		</node>
		<node id="105662202" x="-81.6183182" y="41.5375054" >
		</node>
		<node id="105662205" x="-81.618315" y="41.536524" >
		</node>
		<node id="105662647" x="-81.607725" y="41.536232" >
		</node>
		<node id="105662653" x="-81.605949" y="41.535931" >
		</node>
		<node id="105665166" x="-81.611608" y="41.54011" >
		</node>
		<node id="105665169" x="-81.611838" y="41.540074" >
		</node>
		<node id="105670241" x="-81.6062189" y="41.5484666" >
		</node>
		<node id="105670247" x="-81.6088874" y="41.5404957" >
		</node>
		<node id="105672199" x="-81.6274705" y="41.5390287" >
		</node>
		<node id="105672216" x="-81.6275808" y="41.5379774" >
		</node>
		<node id="105672240" x="-81.6276772" y="41.5374072" >
		</node>
		<node id="105672269" x="-81.6275699" y="41.5332801" >
		</node>
		<node id="105673013" x="-81.619119" y="41.536299" >
		</node>
		<node id="105676671" x="-81.619469" y="41.5369799" >
		</node>
		<node id="105681466" x="-81.6007371" y="41.537669" >
		</node>
		<node id="105683477" x="-81.622396" y="41.538102" >
		</node>
		<node id="105683479" x="-81.622185" y="41.538151" >
		</node>
		<node id="105683906" x="-81.622683" y="41.53863" >
		</node>
		<node id="105683910" x="-81.622592" y="41.538674" >
		</node>
		<node id="105691013" x="-81.627261" y="41.5334213" >
		</node>
		<node id="105691019" x="-81.6244417" y="41.5347089" >
		</node>
		<node id="105691022" x="-81.6236306" y="41.5350793" >
		</node>
		<node id="105691024" x="-81.621284" y="41.536151" >
		</node>
		<node id="105691026" x="-81.6137632" y="41.5395854" >
		</node>
		<node id="105691029" x="-81.613116" y="41.539881" >
		</node>
		<node id="105691034" x="-81.610881" y="41.540201" >
		</node>
		<node id="105691050" x="-81.601021" y="41.541345" >
		</node>
		<node id="105702298" x="-81.609426" y="41.537276" >
		</node>
		<node id="105708427" x="-81.623079" y="41.540743" >
		</node>
		<node id="105711500" x="-81.6012597" y="41.5235093" >
		</node>
		<node id="105740365" x="-81.6108869" y="41.5408688" >
		</node>
		<node id="1156352916" x="-81.6130638" y="41.5411281" >
		</node>
		<node id="1156352919" x="-81.6135739" y="41.5380588" >
		</node>
		<node id="1156352926" x="-81.6131909" y="41.540884" >
		</node>
		<node id="1409972297" x="-81.6268391" y="41.5336213" >
		</node>
		<node id="1436914897" x="-81.6099396" y="41.5375429" >
		</node>
		<node id="2505412879" x="-81.6297741" y="41.536803" >
		</node>
		<node id="3552480403" x="-81.609907" y="41.540346" >
		</node>
		<node id="3617697138" x="-81.6124631" y="41.5399848" >
		</node>
		<node id="3637430593" x="-81.6263754" y="41.5344029" >
		</node>
		<node id="4235616998" x="-81.607572" y="41.535444" >
		</node>
		<node id="6951091191" x="-81.6128182" y="41.5380276" >
		</node>
		<node id="7033267365" x="-81.6093631" y="41.5351813" >
		</node>
	</nodes>

<!-- ====================================================================== -->

	<links capperiod="01:00:00" effectivecellsize="7.5" effectivelanewidth="3.75">
		<link id="1" from="105691013" to="105648735" length="0.001575440803663269" freespeed="4.166666666666667" capacity="600.0" permlanes="1.0" oneway="1" modes="car" >
			<attributes>
				<attribute name="origid" class="java.lang.String">11810228</attribute>
				<attribute name="type" class="java.lang.String">residential</attribute>
			</attributes>
		</link>
		<link id="10" from="105594845" to="1156352919" length="0.0019748025926651785" freespeed="4.166666666666667" capacity="600.0" permlanes="1.0" oneway="1" modes="car" >
			<attributes>
				<attribute name="origid" class="java.lang.String">680788120</attribute>
				<attribute name="type" class="java.lang.String">residential</attribute>
			</attributes>
		</link>
		<link id="100" from="7033267365" to="105659802" length="0.002384413679032962" freespeed="4.166666666666667" capacity="600.0" permlanes="1.0" oneway="1" modes="car" >
			<attributes>
				<attribute name="origid" class="java.lang.String">11800985</attribute>
				<attribute name="type" class="java.lang.String">residential</attribute>
			</attributes>
		</link>
		<link id="101" from="1436914897" to="105659800" length="2.8708897476087576E-4" freespeed="4.166666666666667" capacity="600.0" permlanes="1.0" oneway="1" modes="car" >
			<attributes>
				<attribute name="origid" class="java.lang.String">100016600</attribute>
				<attribute name="type" class="java.lang.String">residential</attribute>
			</attributes>
		</link>
		<link id="102" from="4235616998" to="105613146" length="0.0036794079287665745" freespeed="4.166666666666667" capacity="600.0" permlanes="1.0" oneway="1" modes="car" >
			<attributes>
				<attribute name="origid" class="java.lang.String">11794819</attribute>
				<attribute name="type" class="java.lang.String">residential</attribute>
			</attributes>
		</link>
		<link id="103" from="105613146" to="4235616998" length="0.0036794079287665745" freespeed="4.166666666666667" capacity="600.0" permlanes="1.0" oneway="1" modes="car" >
			<attributes>
				<attribute name="origid" class="java.lang.String">11794819</attribute>
				<attribute name="type" class="java.lang.String">residential</attribute>
			</attributes>
		</link>
		<link id="108" from="105598252" to="105651920" length="0.0018370533471039395" freespeed="4.166666666666667" capacity="600.0" permlanes="1.0" oneway="1" modes="car" >
			<attributes>
				<attribute name="origid" class="java.lang.String">119710742</attribute>
				<attribute name="type" class="java.lang.String">residential</attribute>
			</attributes>
		</link>
		<link id="109" from="105662202" to="105662205" length="9.81405217023625E-4" freespeed="4.166666666666667" capacity="600.0" permlanes="1.0" oneway="1" modes="car" >
			<attributes>
				<attribute name="origid" class="java.lang.String">119710743</attribute>
				<attribute name="type" class="java.lang.String">residential</attribute>
			</attributes>
		</link>
		<link id="11" from="1156352919" to="105594845" length="0.0019748025926651785" freespeed="4.166666666666667" capacity="600.0" permlanes="1.0" oneway="1" modes="car" >
			<attributes>
				<attribute name="origid" class="java.lang.String">680788120</attribute>
				<attribute name="type" class="java.lang.String">residential</attribute>
			</attributes>
		</link>
		<link id="110" from="105662205" to="105662202" length="9.81405217023625E-4" freespeed="4.166666666666667" capacity="600.0" permlanes="1.0" oneway="1" modes="car" >
			<attributes>
				<attribute name="origid" class="java.lang.String">119710743</attribute>
				<attribute name="type" class="java.lang.String">residential</attribute>
			</attributes>
		</link>
		<link id="111" from="105662205" to="105624123" length="6.530068912344523E-4" freespeed="4.166666666666667" capacity="600.0" permlanes="1.0" oneway="1" modes="car" >
			<attributes>
				<attribute name="origid" class="java.lang.String">119710743</attribute>
				<attribute name="type" class="java.lang.String">residential</attribute>
			</attributes>
		</link>
		<link id="112" from="105624123" to="105662205" length="6.530068912344523E-4" freespeed="4.166666666666667" capacity="600.0" permlanes="1.0" oneway="1" modes="car" >
			<attributes>
				<attribute name="origid" class="java.lang.String">119710743</attribute>
				<attribute name="type" class="java.lang.String">residential</attribute>
			</attributes>
		</link>
		<link id="113" from="105652538" to="105652541" length="0.0016049999999978581" freespeed="4.166666666666667" capacity="600.0" permlanes="1.0" oneway="1" modes="car" >
			<attributes>
				<attribute name="origid" class="java.lang.String">11800195</attribute>
				<attribute name="type" class="java.lang.String">residential</attribute>
			</attributes>
		</link>
		<link id="114" from="105652541" to="105652538" length="0.0016049999999978581" freespeed="4.166666666666667" capacity="600.0" permlanes="1.0" oneway="1" modes="car" >
			<attributes>
				<attribute name="origid" class="java.lang.String">11800195</attribute>
				<attribute name="type" class="java.lang.String">residential</attribute>
			</attributes>
		</link>
		<link id="115" from="105639217" to="105633170" length="0.0041868000011936095" freespeed="4.166666666666667" capacity="600.0" permlanes="1.0" oneway="1" modes="car" >
			<attributes>
				<attribute name="origid" class="java.lang.String">11801484</attribute>
				<attribute name="type" class="java.lang.String">residential</attribute>
			</attributes>
		</link>
		<link id="116" from="105662202" to="105598254" length="0.0032910475716700143" freespeed="4.166666666666667" capacity="600.0" permlanes="1.0" oneway="1" modes="car" >
			<attributes>
				<attribute name="origid" class="java.lang.String">119710744</attribute>
				<attribute name="type" class="java.lang.String">residential</attribute>
			</attributes>
		</link>
		<link id="117" from="105594199" to="105594201" length="8.103006170528923E-4" freespeed="4.166666666666667" capacity="600.0" permlanes="1.0" oneway="1" modes="car" >
			<attributes>
				<attribute name="origid" class="java.lang.String">11792776</attribute>
				<attribute name="type" class="java.lang.String">residential</attribute>
			</attributes>
		</link>
		<link id="118" from="105594201" to="105594199" length="8.103006170528923E-4" freespeed="4.166666666666667" capacity="600.0" permlanes="1.0" oneway="1" modes="car" >
			<attributes>
				<attribute name="origid" class="java.lang.String">11792776</attribute>
				<attribute name="type" class="java.lang.String">residential</attribute>
			</attributes>
		</link>
		<link id="119" from="105594201" to="105594203" length="0.0015700257959673743" freespeed="4.166666666666667" capacity="600.0" permlanes="1.0" oneway="1" modes="car" >
			<attributes>
				<attribute name="origid" class="java.lang.String">11792776</attribute>
				<attribute name="type" class="java.lang.String">residential</attribute>
			</attributes>
		</link>
		<link id="12" from="1156352919" to="105594849" length="7.441967547282116E-4" freespeed="4.166666666666667" capacity="600.0" permlanes="1.0" oneway="1" modes="car" >
			<attributes>
				<attribute name="origid" class="java.lang.String">680788120</attribute>
				<attribute name="type" class="java.lang.String">residential</attribute>
			</attributes>
		</link>
		<link id="120" from="105594203" to="105594201" length="0.0015700257959673743" freespeed="4.166666666666667" capacity="600.0" permlanes="1.0" oneway="1" modes="car" >
			<attributes>
				<attribute name="origid" class="java.lang.String">11792776</attribute>
				<attribute name="type" class="java.lang.String">residential</attribute>
			</attributes>
		</link>
		<link id="121" from="105545622" to="105545633" length="0.003448296264402403" freespeed="4.166666666666667" capacity="600.0" permlanes="1.0" oneway="1" modes="car" >
			<attributes>
				<attribute name="origid" class="java.lang.String">11788686</attribute>
				<attribute name="type" class="java.lang.String">residential</attribute>
			</attributes>
		</link>
		<link id="122" from="105545633" to="105545622" length="0.003448296264402403" freespeed="4.166666666666667" capacity="600.0" permlanes="1.0" oneway="1" modes="car" >
			<attributes>
				<attribute name="origid" class="java.lang.String">11788686</attribute>
				<attribute name="type" class="java.lang.String">residential</attribute>
			</attributes>
		</link>
		<link id="123" from="105672199" to="105581795" length="0.002711991760855357" freespeed="4.166666666666667" capacity="600.0" permlanes="1.0" oneway="1" modes="car" >
			<attributes>
				<attribute name="origid" class="java.lang.String">11809930</attribute>
				<attribute name="type" class="java.lang.String">residential</attribute>
			</attributes>
		</link>
		<link id="124" from="105581795" to="105672199" length="0.002711991760855357" freespeed="4.166666666666667" capacity="600.0" permlanes="1.0" oneway="1" modes="car" >
			<attributes>
				<attribute name="origid" class="java.lang.String">11809930</attribute>
				<attribute name="type" class="java.lang.String">residential</attribute>
			</attributes>
		</link>
		<link id="125" from="105581795" to="105583707" length="6.163975989606281E-4" freespeed="4.166666666666667" capacity="600.0" permlanes="1.0" oneway="1" modes="car" >
			<attributes>
				<attribute name="origid" class="java.lang.String">11809930</attribute>
				<attribute name="type" class="java.lang.String">residential</attribute>
			</attributes>
		</link>
		<link id="126" from="105583707" to="105581795" length="6.163975989606281E-4" freespeed="4.166666666666667" capacity="600.0" permlanes="1.0" oneway="1" modes="car" >
			<attributes>
				<attribute name="origid" class="java.lang.String">11809930</attribute>
				<attribute name="type" class="java.lang.String">residential</attribute>
			</attributes>
		</link>
		<link id="127" from="105583707" to="105708427" length="0.0014144166006460337" freespeed="4.166666666666667" capacity="600.0" permlanes="1.0" oneway="1" modes="car" >
			<attributes>
				<attribute name="origid" class="java.lang.String">11809930</attribute>
				<attribute name="type" class="java.lang.String">residential</attribute>
			</attributes>
		</link>
		<link id="128" from="105708427" to="105583707" length="0.0014144166006460337" freespeed="4.166666666666667" capacity="600.0" permlanes="1.0" oneway="1" modes="car" >
			<attributes>
				<attribute name="origid" class="java.lang.String">11809930</attribute>
				<attribute name="type" class="java.lang.String">residential</attribute>
			</attributes>
		</link>
		<link id="129" from="105708427" to="105579559" length="9.470664347318019E-4" freespeed="4.166666666666667" capacity="600.0" permlanes="1.0" oneway="1" modes="car" >
			<attributes>
				<attribute name="origid" class="java.lang.String">11809930</attribute>
				<attribute name="type" class="java.lang.String">residential</attribute>
			</attributes>
		</link>
		<link id="13" from="105594849" to="1156352919" length="7.441967547282116E-4" freespeed="4.166666666666667" capacity="600.0" permlanes="1.0" oneway="1" modes="car" >
			<attributes>
				<attribute name="origid" class="java.lang.String">680788120</attribute>
				<attribute name="type" class="java.lang.String">residential</attribute>
			</attributes>
		</link>
		<link id="130" from="105579559" to="105708427" length="9.470664347318019E-4" freespeed="4.166666666666667" capacity="600.0" permlanes="1.0" oneway="1" modes="car" >
			<attributes>
				<attribute name="origid" class="java.lang.String">11809930</attribute>
				<attribute name="type" class="java.lang.String">residential</attribute>
			</attributes>
		</link>
		<link id="133" from="105579559" to="105629759" length="0.0016813031196242045" freespeed="4.166666666666667" capacity="600.0" permlanes="1.0" oneway="1" modes="car" >
			<attributes>
				<attribute name="origid" class="java.lang.String">11809931</attribute>
				<attribute name="type" class="java.lang.String">unclassified</attribute>
			</attributes>
		</link>
		<link id="134" from="105629759" to="105579559" length="0.0016813031196242045" freespeed="4.166666666666667" capacity="600.0" permlanes="1.0" oneway="1" modes="car" >
			<attributes>
				<attribute name="origid" class="java.lang.String">11809931</attribute>
				<attribute name="type" class="java.lang.String">unclassified</attribute>
			</attributes>
		</link>
		<link id="137" from="105676671" to="105598252" length="0.003811102099130963" freespeed="4.166666666666667" capacity="600.0" permlanes="1.0" oneway="1" modes="car" >
			<attributes>
				<attribute name="origid" class="java.lang.String">11803127</attribute>
				<attribute name="type" class="java.lang.String">residential</attribute>
			</attributes>
		</link>
		<link id="138" from="105633166" to="105639181" length="0.0010963718575484433" freespeed="11.176" capacity="2000.0" permlanes="2.0" oneway="1" modes="car" >
			<attributes>
				<attribute name="origid" class="java.lang.String">850992637</attribute>
				<attribute name="type" class="java.lang.String">secondary</attribute>
			</attributes>
		</link>
		<link id="139" from="105639181" to="105633166" length="0.0010963718575484433" freespeed="11.176" capacity="2000.0" permlanes="2.0" oneway="1" modes="car" >
			<attributes>
				<attribute name="origid" class="java.lang.String">850992637</attribute>
				<attribute name="type" class="java.lang.String">secondary</attribute>
			</attributes>
		</link>
		<link id="14" from="105528977" to="105528989" length="0.0021702798195232078" freespeed="4.166666666666667" capacity="600.0" permlanes="1.0" oneway="1" modes="car" >
			<attributes>
				<attribute name="origid" class="java.lang.String">11787198</attribute>
				<attribute name="type" class="java.lang.String">residential</attribute>
			</attributes>
		</link>
		<link id="140" from="105639181" to="105691026" length="8.691198767338891E-4" freespeed="11.176" capacity="2000.0" permlanes="2.0" oneway="1" modes="car" >
			<attributes>
				<attribute name="origid" class="java.lang.String">850992638</attribute>
				<attribute name="type" class="java.lang.String">secondary</attribute>
			</attributes>
		</link>
		<link id="141" from="105691026" to="105639181" length="8.691198767338891E-4" freespeed="11.176" capacity="2000.0" permlanes="2.0" oneway="1" modes="car" >
			<attributes>
				<attribute name="origid" class="java.lang.String">850992638</attribute>
				<attribute name="type" class="java.lang.String">secondary</attribute>
			</attributes>
		</link>
		<link id="142" from="105691026" to="105691029" length="7.115105065093616E-4" freespeed="11.176" capacity="2000.0" permlanes="2.0" oneway="1" modes="car" >
			<attributes>
				<attribute name="origid" class="java.lang.String">850992638</attribute>
				<attribute name="type" class="java.lang.String">secondary</attribute>
			</attributes>
		</link>
		<link id="143" from="105691029" to="105691026" length="7.115105065093616E-4" freespeed="11.176" capacity="2000.0" permlanes="2.0" oneway="1" modes="car" >
			<attributes>
				<attribute name="origid" class="java.lang.String">850992638</attribute>
				<attribute name="type" class="java.lang.String">secondary</attribute>
			</attributes>
		</link>
		<link id="144" from="105691029" to="3617697138" length="6.61375012077148E-4" freespeed="11.176" capacity="2000.0" permlanes="2.0" oneway="1" modes="car" >
			<attributes>
				<attribute name="origid" class="java.lang.String">850992638</attribute>
				<attribute name="type" class="java.lang.String">secondary</attribute>
			</attributes>
		</link>
		<link id="145" from="3617697138" to="105691029" length="6.61375012077148E-4" freespeed="11.176" capacity="2000.0" permlanes="2.0" oneway="1" modes="car" >
			<attributes>
				<attribute name="origid" class="java.lang.String">850992638</attribute>
				<attribute name="type" class="java.lang.String">secondary</attribute>
			</attributes>
		</link>
		<link id="146" from="105670247" to="105662647" length="0.004442789770418713" freespeed="6.944444444444445" capacity="600.0" permlanes="1.0" oneway="1" modes="car" >
			<attributes>
				<attribute name="origid" class="java.lang.String">11811069</attribute>
				<attribute name="type" class="java.lang.String">tertiary</attribute>
			</attributes>
		</link>
		<link id="147" from="105662647" to="105670247" length="0.004442789770418713" freespeed="6.944444444444445" capacity="600.0" permlanes="1.0" oneway="1" modes="car" >
			<attributes>
				<attribute name="origid" class="java.lang.String">11811069</attribute>
				<attribute name="type" class="java.lang.String">tertiary</attribute>
			</attributes>
		</link>
		<link id="148" from="105662647" to="4235616998" length="8.027160145401505E-4" freespeed="6.944444444444445" capacity="600.0" permlanes="1.0" oneway="1" modes="car" >
			<attributes>
				<attribute name="origid" class="java.lang.String">11811069</attribute>
				<attribute name="type" class="java.lang.String">tertiary</attribute>
			</attributes>
		</link>
		<link id="149" from="4235616998" to="105662647" length="8.027160145401505E-4" freespeed="6.944444444444445" capacity="600.0" permlanes="1.0" oneway="1" modes="car" >
			<attributes>
				<attribute name="origid" class="java.lang.String">11811069</attribute>
				<attribute name="type" class="java.lang.String">tertiary</attribute>
			</attributes>
		</link>
		<link id="15" from="105528989" to="105528977" length="0.0021702798195232078" freespeed="4.166666666666667" capacity="600.0" permlanes="1.0" oneway="1" modes="car" >
			<attributes>
				<attribute name="origid" class="java.lang.String">11787198</attribute>
				<attribute name="type" class="java.lang.String">residential</attribute>
			</attributes>
		</link>
		<link id="150" from="4235616998" to="105588770" length="9.454866471766668E-4" freespeed="6.944444444444445" capacity="600.0" permlanes="1.0" oneway="1" modes="car" >
			<attributes>
				<attribute name="origid" class="java.lang.String">11811069</attribute>
				<attribute name="type" class="java.lang.String">tertiary</attribute>
			</attributes>
		</link>
		<link id="151" from="105588770" to="4235616998" length="9.454866471766668E-4" freespeed="6.944444444444445" capacity="600.0" permlanes="1.0" oneway="1" modes="car" >
			<attributes>
				<attribute name="origid" class="java.lang.String">11811069</attribute>
				<attribute name="type" class="java.lang.String">tertiary</attribute>
			</attributes>
		</link>
		<link id="152" from="105588770" to="105652541" length="8.033036176270502E-4" freespeed="6.944444444444445" capacity="600.0" permlanes="1.0" oneway="1" modes="car" >
			<attributes>
				<attribute name="origid" class="java.lang.String">11811069</attribute>
				<attribute name="type" class="java.lang.String">tertiary</attribute>
			</attributes>
		</link>
		<link id="153" from="105652541" to="105588770" length="8.033036176270502E-4" freespeed="6.944444444444445" capacity="600.0" permlanes="1.0" oneway="1" modes="car" >
			<attributes>
				<attribute name="origid" class="java.lang.String">11811069</attribute>
				<attribute name="type" class="java.lang.String">tertiary</attribute>
			</attributes>
		</link>