<?xml version="1.0" encoding="UTF-8"?>
<!DOCTYPE network SYSTEM "http://www.matsim.org/files/dtd/network_v2.dtd">
<network>

<!-- ====================================================================== -->

	<nodes>
		<node id="1270745648" x="52307.124886575395" y="27833.26539109101" >
		</node>
		<node id="1271001343" x="51805.79774480103" y="28274.205589250854" >
		</node>
		<node id="1271001348" x="51942.018846417166" y="28296.734701067075" >
		</node>
		<node id="1308305528" x="51669.88119391367" y="28199.112452092282" >
		</node>
		<node id="1578907668" x="51694.72010031799" y="28044.731933227995" >
		</node>
		<node id="1580501214" x="51976.66567540126" y="28089.438115492783" >
		</node>
		<node id="1723738829" x="51492.353715902726" y="27575.43098241694" >
		</node>
		<node id="1723738831" x="52553.993673693854" y="28633.437827089525" >
		</node>
		<node id="1723738833" x="51998.621518271364" y="28079.90332449178" >
		</node>
		<node id="1723738887" x="51883.23793430877" y="27964.90351521663" >
		</node>
		<node id="1723738893" x="52229.09731368504" y="28309.585835207996" >
		</node>
		<node id="1723738949" x="51894.94550197689" y="27963.499428645937" >
		</node>
		<node id="1723738990" x="52101.58785297455" y="28182.767016544007" >
		</node>
		<node id="1723739121" x="52141.435603036945" y="28222.25616620308" >
		</node>
		<node id="1723739123" x="52477.844942670796" y="28557.532113952853" >
		</node>
		<node id="1723739163" x="51693.536905241584" y="27775.99461089555" >
		</node>
		<node id="1723739205" x="51637.20157683009" y="27720.040074025008" >
		</node>
		<node id="1723739241" x="52395.61154557198" y="28475.552530785495" >
		</node>
		<node id="1723739244" x="52281.03140006497" y="28361.324446406798" >
		</node>
		<node id="1723739263" x="51602.95801679986" y="27685.961217160406" >
		</node>
		<node id="1723739266" x="52632.68508540439" y="28711.887433502045" >
		</node>
		<node id="1723739359" x="52439.65531951005" y="28519.995688385796" >
		</node>
		<node id="1723768769" x="52713.96691018482" y="28847.722871842983" >
		</node>
		<node id="1864987699" x="51756.3870568898" y="27838.60100029144" >
		</node>
		<node id="2331980048" x="52374.24505479404" y="28454.541217033635" >
		</node>
		<node id="258756405" x="52724.58745543989" y="28804.696817939974" >
		</node>
		<node id="2936165726" x="51823.89446110648" y="28170.490752460333" >
		</node>
		<node id="302742529" x="52234.32123972812" y="27623.117516553306" >
		</node>
		<node id="3102328772" x="52621.11339990859" y="28566.979095518007" >
		</node>
		<node id="317102881" x="52853.9595973818" y="27785.68698019216" >
		</node>
		<node id="317102904" x="52864.32817456983" y="27844.70819589272" >
		</node>
		<node id="317122752" x="51774.525123290776" y="28471.936867424105" >
		</node>
		<node id="364825869" x="51757.4110927081" y="28162.069064947438" >
		</node>
		<node id="371151373" x="51975.61960365232" y="27774.683004744234" >
		</node>
		<node id="371151391" x="51872.37285288651" y="27673.208243221987" >
		</node>
		<node id="3814451006" x="51469.23954888672" y="27593.424307616962" >
		</node>
		<node id="386885670" x="51719.63066789462" y="28260.391958460656" >
		</node>
		<node id="386885889" x="51748.617286420544" y="28265.05571851052" >
		</node>
		<node id="3902413693" x="51814.107743322216" y="28171.307564999515" >
		</node>
		<node id="3907508666" x="51875.67279133216" y="28392.024260433718" >
		</node>
		<node id="3999642761" x="51643.89859175416" y="27894.468854838677" >
		</node>
		<node id="3999644592" x="52254.1606944102" y="27996.06494209117" >
		</node>
		<node id="3999644792" x="51652.723160345" y="28037.876018799514" >
		</node>
		<node id="3999645959" x="52417.484089613645" y="27831.95861596829" >
		</node>
		<node id="3999654354" x="51631.80429478855" y="27953.733895576173" >
		</node>
		<node id="3999658235" x="52273.29587532947" y="27583.6462674029" >
		</node>
		<node id="3999660977" x="52108.665819681584" y="27749.530632008165" >
		</node>
		<node id="3999675134" x="51725.08624150319" y="28779.299328455792" >
		</node>
		<node id="3999675135" x="51694.3036033134" y="28973.190909591838" >
		</node>
		<node id="3999729294" x="52809.556433100384" y="28685.63900216005" >
		</node>
		<node id="4018840049" x="51730.38624077266" y="28745.65963752725" >
		</node>
		<node id="4018840072" x="51731.77384496967" y="28735.171393216122" >
		</node>
		<node id="4089793019" x="52211.15660672549" y="27736.91806269268" >
		</node>
		<node id="4089793020" x="52352.94231674066" y="27879.318365130337" >
		</node>
		<node id="4089793022" x="52069.60250262766" y="28381.739926237926" >
		</node>
		<node id="4089793023" x="52021.1195123384" y="28692.053478032027" >
		</node>
		<node id="4089809876" x="52218.772077340334" y="28381.781685695103" >
		</node>
		<node id="4089809877" x="52155.72828789926" y="28543.544604177696" >
		</node>
		<node id="4104677531" x="52036.4696044795" y="28588.925963727706" >
		</node>
		<node id="4104677532" x="52806.3454859889" y="28603.346644099416" >
		</node>
		<node id="4104762087" x="52750.940367153846" y="28744.24278059735" >
		</node>
		<node id="4177158847" x="51543.145339509574" y="28338.631011182602" >
		</node>
		<node id="4177198628" x="51780.09933653395" y="28436.643549150154" >
		</node>
		<node id="4177198631" x="52376.75465601372" y="28472.54566829549" >
		</node>
		<node id="4177198632" x="52446.76265937388" y="28586.895212321255" >
		</node>
		<node id="4177198633" x="52729.13686798709" y="28612.74748154162" >
		</node>
		<node id="4177198637" x="52520.58115858395" y="28816.17001302918" >
		</node>
		<node id="4177227589" x="51636.686989703216" y="28247.091221438895" >
		</node>
		<node id="4177227591" x="51764.88537309068" y="28267.649282093695" >
		</node>
		<node id="4177227592" x="52731.059146800675" y="28302.400121069375" >
		</node>
		<node id="4177227593" x="52328.974409776856" y="28312.98972200528" >
		</node>
		<node id="4177227594" x="52183.033923086485" y="28334.935380764276" >
		</node>
		<node id="4177227596" x="52553.20654489564" y="28352.45775767529" >
		</node>
		<node id="4177227597" x="52627.34261912916" y="28406.91910029263" >
		</node>
		<node id="4177227598" x="52595.41202139743" y="28439.17808180352" >
		</node>
		<node id="4177227600" x="52533.58536620218" y="28665.359357964204" >
		</node>
		<node id="4179555579" x="51945.16517172244" y="27520.671564576834" >
		</node>
		<node id="4179555583" x="52098.06213296754" y="28205.074910527903" >
		</node>
		<node id="4179595258" x="52848.40944471151" y="28100.793548798058" >
		</node>
		<node id="4179595260" x="51815.0702756" y="28223.18626697578" >
		</node>
		<node id="4184167081" x="51734.6216279847" y="28262.79619699012" >
		</node>
		<node id="4547464634" x="52488.39215429736" y="27742.25893066021" >
		</node>
		<node id="4603528483" x="51769.54046407482" y="27950.47707685252" >
		</node>
		<node id="4603528486" x="51767.14895262096" y="28056.230341960658" >
		</node>
		<node id="5020557542" x="51990.93127394397" y="28516.735902291846" >
		</node>
		<node id="5020557543" x="52314.53555840219" y="28568.688565886987" >
		</node>
		<node id="5020557545" x="52184.26645413061" y="28596.269792805666" >
		</node>
		<node id="5020557546" x="51951.42767295819" y="28238.73411719322" >
		</node>
		<node id="5020557558" x="51571.30049890132" y="28818.06778166742" >
		</node>
		<node id="5020786537" x="51738.92788167602" y="28051.755555043248" >
		</node>
		<node id="5020797978" x="52456.37971181802" y="27710.37540173206" >
		</node>
		<node id="5020800957" x="52652.33319262643" y="27905.52102598923" >
		</node>
		<node id="5080202405" x="52542.54541916675" y="27798.79525941324" >
		</node>
		<node id="5318468081" x="52366.02708723681" y="28470.852875798155" >
		</node>
		<node id="5318541585" x="52648.442708210576" y="28727.32439242719" >
		</node>
		<node id="5429620679" x="51754.170196515915" y="27948.00600778081" >
		</node>
		<node id="5429899920" x="52833.813212603985" y="28086.255950372244" >
		</node>
		<node id="552853360" x="51677.98142146935" y="28148.092460042895" >
		</node>
		<node id="552853367" x="51652.770168348594" y="28249.68448178656" >
		</node>
		<node id="5612962311" x="51857.25137175305" y="27608.70301227637" >
		</node>
		<node id="5612962313" x="51888.37157812907" y="27688.976811680517" >
		</node>
		<node id="5828476940" x="51659.88269651063" y="28260.35409347069" >
		</node>
		<node id="5841552340" x="52685.9640279528" y="27939.01565074483" >
		</node>
		<node id="5841552343" x="52684.52772451001" y="27955.319741845808" >
		</node>
		<node id="5853161530" x="52627.719249498885" y="28739.888270977535" >
		</node>
		<node id="5854943486" x="52630.290751778615" y="28724.983305491383" >
		</node>
		<node id="5858516475" x="51563.950551596325" y="27646.974544018165" >
		</node>
		<node id="5858516479" x="51617.27544746209" y="27700.01922862627" >
		</node>
		<node id="5858516685" x="51793.7638702682" y="27875.823054928827" >
		</node>
		<node id="5858516688" x="51943.45244710894" y="28025.301345851716" >
		</node>
		<node id="5858516691" x="52130.03828976063" y="28220.40795491827" >
		</node>
		<node id="5858516694" x="52195.0699728937" y="28275.671080796455" >
		</node>
		<node id="5858516700" x="52348.221616450166" y="28428.310813403597" >
		</node>
		<node id="5922052537" x="51841.74090920724" y="27962.19802087123" >
		</node>
		<node id="5922052538" x="51823.877946371824" y="27959.392679758243" >
		</node>
		<node id="6101380143" x="52539.221810521834" y="28618.711952394293" >
		</node>
		<node id="6319217960" x="51624.28877018129" y="28457.83982929564" >
		</node>
		<node id="6319217961" x="51607.43733912884" y="28561.11171862623" >
		</node>
		<node id="6319217963" x="51590.60266235011" y="28667.32498937557" >
		</node>
		<node id="6319217968" x="51588.18234345606" y="28723.619764141888" >
		</node>
		<node id="6319217969" x="51598.74072131723" y="28668.66046175726" >
		</node>
		<node id="6319217970" x="51615.57551498789" y="28562.41390935847" >
		</node>
		<node id="6319217971" x="51632.4270454697" y="28459.14203640062" >
		</node>
		<node id="6369291411" x="52279.42262674786" y="28456.955453232666" >
		</node>
		<node id="6369291415" x="52537.49756094573" y="28710.746701753378" >
		</node>
		<node id="6370811836" x="52766.69814351572" y="28728.490825983812" >
		</node>
		<node id="6375094234" x="52493.11514003495" y="27755.95806741763" >
		</node>
		<node id="6376456942" x="52638.01892731062" y="28437.1263898887" >
		</node>
		<node id="6378899315" x="51784.38428540976" y="28408.519811744212" >
		</node>
		<node id="6378899319" x="51830.73599317609" y="28384.710976938564" >
		</node>
		<node id="6381902760" x="52225.227982749166" y="28554.69040014342" >
		</node>
		<node id="6395263792" x="52628.50248800109" y="28427.63110670884" >
		</node>
		<node id="6456587036" x="51709.25941420983" y="27759.918760768283" >
		</node>
		<node id="65286336" x="52776.71249284308" y="28030.43742250003" >
		</node>
		<node id="65293743" x="51589.02935558435" y="27487.121979014813" >
		</node>
		<node id="65293746" x="51636.37418965374" y="27439.12710525345" >
		</node>
		<node id="65295275" x="52612.93249769916" y="28830.938950948173" >
		</node>
		<node id="65295278" x="52509.56344272602" y="28814.41027668143" >
		</node>
		<node id="65295279" x="52405.991416378194" y="28797.83839501" >
		</node>
		<node id="65295281" x="52302.480618921654" y="28781.290047636023" >
		</node>
		<node id="65295287" x="52158.13026950706" y="28758.1403730011" >
		</node>
		<node id="65295289" x="52014.19285433411" y="28735.470703277948" >
		</node>
		<node id="65295293" x="51879.61724508302" y="28713.473916306102" >
		</node>
		<node id="65295299" x="51738.86670915062" y="28690.999252939582" >
		</node>
		<node id="65295314" x="51450.10616102132" y="28644.44470003828" >
		</node>
		<node id="65295324" x="51304.80854636324" y="28621.365093201355" >
		</node>
		<node id="65300073" x="52633.6281074948" y="27614.808154828093" >
		</node>
		<node id="65300078" x="52497.61021091993" y="27751.443096683724" >
		</node>
		<node id="65300085" x="52362.354647976914" y="27887.592339903025" >
		</node>
		<node id="65300093" x="52271.63764004154" y="27978.426060573525" >
		</node>
		<node id="65300097" x="52224.5479494259" y="28025.82919041909" >
		</node>
		<node id="65300107" x="52138.39078332927" y="28111.228063549082" >
		</node>
		<node id="65303525" x="52352.269746372614" y="28468.63682700223" >
		</node>
		<node id="65303529" x="52208.521774859706" y="28445.58649988792" >
		</node>
		<node id="65303533" x="52063.11720307739" y="28422.204886227628" >
		</node>
		<node id="65303538" x="51925.462513802144" y="28400.161451327484" >
		</node>
		<node id="65303541" x="51789.20769677067" y="28377.954472758858" >
		</node>
		<node id="65303544" x="51645.29801860017" y="28354.936107351823" >
		</node>
		<node id="65303546" x="51499.87257704257" y="28331.719826032597" >
		</node>
		<node id="65305814" x="52225.24043688302" y="28341.549926965854" >
		</node>
		<node id="65305815" x="52191.821233879935" y="28549.45664198211" >
		</node>
		<node id="65305817" x="52175.17429778137" y="28652.66090094352" >
		</node>
		<node id="65306795" x="52754.106573660145" y="28279.29348605793" >
		</node>
		<node id="65306797" x="52557.71591057857" y="28082.80205165246" >
		</node>
		<node id="65306800" x="52493.84326022982" y="28019.867075865608" >
		</node>
		<node id="65306802" x="52459.0854849914" y="27984.463537985936" >
		</node>
		<node id="65306804" x="52166.0331060501" y="27691.66539137046" >
		</node>
		<node id="65306810" x="51969.32307022027" y="27496.475560458355" >
		</node>
		<node id="65306918" x="51981.304867168794" y="27876.89940074752" >
		</node>
		<node id="65306931" x="51725.592530455" y="27620.951562890794" >
		</node>
		<node id="65306948" x="51771.17190879693" y="27696.369969679723" >
		</node>
		<node id="65306993" x="52312.39976081276" y="28206.649452174835" >
		</node>
		<node id="65307012" x="52294.058914087305" y="28834.495881336486" >
		</node>
		<node id="65307359" x="52286.176362125014" y="28884.305610426734" >
		</node>
		<node id="65307363" x="51997.5313209467" y="28837.809591797268" >
		</node>
		<node id="65307366" x="51863.11555447097" y="28816.51240485678" >
		</node>
		<node id="65307368" x="51817.13293203784" y="28809.176498753543" >
		</node>
		<node id="65307376" x="51722.58691326516" y="28794.082515524577" >
		</node>
		<node id="65307381" x="51579.142302662374" y="28771.143188608985" >
		</node>
		<node id="65307389" x="51432.70255268143" y="28747.32826545215" >
		</node>
		<node id="65308413" x="52771.81064301211" y="28569.80656762776" >
		</node>
		<node id="65312472" x="51797.5465727298" y="28326.379726946456" >
		</node>
		<node id="65313131" x="51652.91409103055" y="27825.823545049" >
		</node>
		<node id="65313133" x="51638.41289349257" y="27929.29610323787" >
		</node>
		<node id="65313138" x="51615.605843183475" y="28031.81051109014" >
		</node>
		<node id="65314146" x="52079.692854189554" y="28318.745118586667" >
		</node>
		<node id="65314156" x="51516.60886895043" y="28227.848341112724" >
		</node>
		<node id="65315406" x="52014.42975593745" y="28520.50999671458" >
		</node>
		<node id="65317028" x="52331.40683883008" y="28310.515850186424" >
		</node>
		<node id="65317030" x="52420.72882839086" y="28220.20366534609" >
		</node>
		<node id="65317032" x="52467.412936372435" y="28173.55617721877" >
		</node>
		<node id="65317042" x="52693.40327359961" y="27946.423135607605" >
		</node>
		<node id="65317045" x="52829.25377430933" y="27809.902280784478" >
		</node>
		<node id="65317530" x="52789.381086442176" y="28042.787229814494" >
		</node>
		<node id="65317532" x="52593.77711679814" y="27848.626329333238" >
		</node>
		<node id="65317538" x="52370.8975205879" y="27625.253320200994" >
		</node>
		<node id="65317542" x="52301.04187310091" y="27555.701525309076" >
		</node>
		<node id="65317713" x="52730.33271999961" y="27711.371701736894" >
		</node>
		<node id="65317715" x="52548.63980704804" y="27530.161788688914" >
		</node>
		<node id="65317939" x="51839.70093035564" y="28067.71834608153" >
		</node>
		<node id="65317945" x="51549.92373950557" y="28021.071094690287" >
		</node>
		<node id="65318220" x="52381.02134229273" y="27538.506428867353" >
		</node>
		<node id="65318224" x="52422.094660507544" y="27497.238914243277" >
		</node>
		<node id="65318277" x="51941.328526185105" y="27916.959830171072" >
		</node>
		<node id="65319526" x="52075.500876164515" y="27782.956410302773" >
		</node>
		<node id="65319582" x="52664.64970759465" y="28369.124720437314" >
		</node>
		<node id="65319908" x="52438.314654387126" y="28588.744244194233" >
		</node>
		<node id="65319911" x="52336.025696059485" y="28572.06295065078" >
		</node>
		<node id="65319923" x="52046.57719344958" y="28525.67581993745" >
		</node>
		<node id="65319925" x="52020.0841827501" y="28521.422900152393" >
		</node>
		<node id="65319928" x="51982.379157895986" y="28515.36654455826" >
		</node>
		<node id="65319933" x="51910.932344985114" y="28503.888894635875" >
		</node>
		<node id="65319940" x="51776.59911944682" y="28482.3045943646" >
		</node>
		<node id="65319946" x="51483.39229150016" y="28435.247390040928" >
		</node>
		<node id="65321839" x="51772.31145552664" y="27574.011612512393" >
		</node>
		<node id="65325032" x="51832.37144980785" y="27633.609368789363" >
		</node>
		<node id="65325039" x="52057.97089318682" y="27407.535538497097" >
		</node>
		<node id="65325222" x="52705.182729636974" y="28328.335534051035" >
		</node>
		<node id="65326455" x="51923.16836696171" y="28611.913429835375" >
		</node>
		<node id="65326736" x="51466.956552681026" y="28538.55303509269" >
		</node>
		<node id="65326740" x="51533.20427622085" y="28124.831493906604" >
		</node>
		<node id="65326742" x="51566.41439952627" y="27917.75461925873" >
		</node>
		<node id="65326744" x="51582.887795323935" y="27814.571377066157" >
		</node>
		<node id="65327403" x="52526.40933501003" y="28708.820414441932" >
		</node>
		<node id="65328687" x="51965.51046872007" y="28151.444673732673" >
		</node>
		<node id="65328690" x="51958.84881267157" y="28192.986250973492" >
		</node>
		<node id="65328694" x="51950.41169700789" y="28244.9825517256" >
		</node>
		<node id="65328697" x="51930.9576751573" y="28365.85604090713" >
		</node>
		<node id="65328700" x="51917.175665264265" y="28451.935887085907" >
		</node>
		<node id="65328705" x="51896.73723261031" y="28607.649836144676" >
		</node>
		<node id="65329017" x="52461.48580300051" y="27618.64228994209" >
		</node>
		<node id="65329019" x="52419.29476525963" y="27576.619728704365" >
		</node>
		<node id="65329405" x="52848.73105801262" y="28646.747697170147" >
		</node>
		<node id="65329978" x="52331.956753713544" y="28186.07046072749" >
		</node>
		<node id="65329980" x="52359.471743497685" y="28158.42545253493" >
		</node>
		<node id="65332806" x="51711.388846531874" y="27941.105041049334" >
		</node>
		<node id="65332833" x="51562.42663888287" y="28868.75461464334" >
		</node>
		<node id="65333647" x="52500.95519327057" y="27578.57302130859" >
		</node>
		<node id="65334111" x="52096.21626689883" y="28214.885798373696" >
		</node>
		<node id="65334510" x="52617.62150249255" y="28416.76985162818" >
		</node>
		<node id="65336474" x="52422.959528901185" y="28691.87101363668" >
		</node>
		<node id="65343958" x="51454.576637762904" y="27687.939932466375" >
		</node>
		<node id="65343960" x="51437.981203363066" y="27791.289848547684" >
		</node>
		<node id="65348742" x="52087.910317604124" y="28267.115112263506" >
		</node>
		<node id="65351772" x="52029.48680427467" y="27828.4964872108" >
		</node>
		<node id="65352417" x="52319.526489886965" y="28675.733173735218" >
		</node>
		<node id="65352429" x="52031.16474522417" y="28629.735619345673" >
		</node>
		<node id="65352435" x="51755.94097420183" y="28584.997275807753" >
		</node>
		<node id="65363153" x="52694.56248052418" y="28493.576338355393" >
		</node>
		<node id="65371286" x="51854.165758404044" y="27971.560554725365" >
		</node>
		<node id="65372925" x="51599.39692537268" y="27711.188411537478" >
		</node>
		<node id="6639180760" x="52414.48463823132" y="27938.81019203404" >
		</node>
		<node id="6639180761" x="52500.077738798784" y="27943.118647436924" >
		</node>
		<node id="6639386716" x="52195.55893969761" y="28526.205440839676" >
		</node>
		<node id="6639386717" x="52188.44586315956" y="28570.38826899655" >
		</node>
		<node id="6766380569" x="51975.00560142843" y="28408.099036440908" >
		</node>
		<node id="6893912303" x="52442.27730820378" y="28198.671461920938" >
		</node>
		<node id="6893912304" x="52453.53191828011" y="28187.42282048789" >
		</node>
		<node id="6893991764" x="52562.19707412499" y="27880.474935541482" >
		</node>
		<node id="6906996472" x="52390.394073574535" y="28580.283063821455" >
		</node>
		<node id="6907054372" x="52556.32739819951" y="28713.79831664401" >
		</node>
		<node id="6907054373" x="52575.632810442" y="28716.927934209452" >
		</node>
		<node id="6907054374" x="52594.9294000787" y="28720.057592145193" >
		</node>
		<node id="6907054375" x="52619.66735104642" y="28789.497793393304" >
		</node>
		<node id="6907054376" x="52623.6535091173" y="28764.94829319348" >
		</node>
		<node id="6914129220" x="52347.01113570298" y="28502.15403614803" >
		</node>
		<node id="6914129221" x="52350.290040506385" y="28481.233524094718" >
		</node>
		<node id="6914381214" x="51674.87137390242" y="27794.044856953416" >
		</node>
		<node id="6925582021" x="51850.58036481767" y="27651.643152083412" >
		</node>
		<node id="6925582023" x="51853.708422972195" y="27612.242036458083" >
		</node>
		<node id="6952632759" x="52703.05865901718" y="28330.509789832795" >
		</node>
		<node id="6988532585" x="51666.713040138784" y="28251.89944331064" >
		</node>
		<node id="6988532586" x="51668.90004426206" y="28246.29525654901" >
		</node>
		<node id="6988532587" x="51662.188014043575" y="28246.18127618501" >
		</node>
		<node id="6988532590" x="51661.384264342116" y="28251.075722508962" >
		</node>
		<node id="6988532615" x="51812.297333929426" y="28238.446558994365" >
		</node>
		<node id="7155175567" x="52194.37824951506" y="28336.71704297155" >
		</node>
		<node id="7155175568" x="52227.342322579156" y="28330.862350261636" >
		</node>
		<node id="7155175569" x="52219.88548483971" y="28374.84517409907" >
		</node>
		<node id="7214779005" x="51666.50788576947" y="27802.487713026632" >
		</node>
		<node id="7217057124" x="51865.082642456655" y="27946.85857596212" >
		</node>
		<node id="7253649825" x="51953.60517014111" y="27904.656564354336" >
		</node>
		<node id="7274605251" x="52200.68396290419" y="28494.319668455893" >
		</node>
		<node id="7274605253" x="52287.47028691175" y="28564.445584869933" >
		</node>
		<node id="7293111110" x="51724.1989236513" y="27858.665057523842" >
		</node>
		<node id="7932077917" x="52529.81632004587" y="28055.304728976687" >
		</node>
		<node id="7932170409" x="52803.88105123887" y="27784.62538755715" >
		</node>
		<node id="7932170410" x="52607.50589079659" y="27588.65460813767" >
		</node>
		<node id="9144234073" x="52565.80368811578" y="27682.942305776804" >
		</node>
		<node id="916328137" x="52687.35365161901" y="28654.812277947945" >
		</node>
		<node id="916328138" x="52715.079820100735" y="28626.902174561586" >
		</node>
		<node id="9444088964" x="51730.097649773146" y="28157.628019191554" >
		</node>
		<node id="9497359810" x="51849.80731961694" y="28174.77606412768" >
		</node>
		<node id="9580454506" x="52073.37995969048" y="27600.649042945424" >
		</node>
		<node id="9580454512" x="51963.47965461007" y="27502.388682480472" >
		</node>
		<node id="9587165794" x="51904.846681693045" y="28557.88426309833" >
		</node>
		<node id="9658272156" x="52604.71939338202" y="28129.434269165067" >
		</node>
		<node id="9666168608" x="52707.62745409185" y="27734.256594570164" >
		</node>
		<node id="9666168609" x="52699.29811337975" y="27742.64292574533" >
		</node>
		<node id="9674225469" x="52270.98274572368" y="28561.85087310359" >
		</node>
		<node id="9674359940" x="52749.72455068663" y="28592.070167066275" >
		</node>
		<node id="9684378147" x="51459.58473320015" y="27656.18688562747" >
		</node>
		<node id="9684569702" x="51446.49446746685" y="27740.147741826884" >
		</node>
	</nodes>

<!-- ====================================================================== -->

	<links capperiod="01:00:00" effectivecellsize="7.5" effectivelanewidth="3.75">
		<link id="1" from="6375094234" to="5080202405" length="65.89132521157615" freespeed="8.333333333333334" capacity="1000.0" permlanes="1.0" oneway="1" modes="car" >
			<attributes>
				<attribute name="origid" class="java.lang.String">521381655</attribute>
				<attribute name="type" class="java.lang.String">secondary</attribute>
			</attributes>
		</link>
		<link id="10" from="65319526" to="3999660977" length="47.087113828241016" freespeed="17.881600000000002" capacity="3000.0" permlanes="3.0" oneway="1" modes="car" >
			<attributes>
				<attribute name="origid" class="java.lang.String">1053833922</attribute>
				<attribute name="type" class="java.lang.String">secondary</attribute>
			</attributes>
		</link>
		<link id="101" from="6319217968" to="65307381" length="50.61299530371419" freespeed="11.176" capacity="600.0" permlanes="1.0" oneway="1" modes="car" >
			<attributes>
				<attribute name="origid" class="java.lang.String">513676827</attribute>
				<attribute name="type" class="java.lang.String">tertiary</attribute>
			</attributes>
		</link>
		<link id="102" from="65305815" to="6639386716" length="23.54970911381597" freespeed="8.333333333333334" capacity="3000.0" permlanes="3.0" oneway="1" modes="car" >
			<attributes>
				<attribute name="origid" class="java.lang.String">513676825</attribute>
				<attribute name="type" class="java.lang.String">secondary</attribute>
			</attributes>
		</link>
		<link id="103" from="5020557545" to="6639386717" length="26.216802522678627" freespeed="8.333333333333334" capacity="3000.0" permlanes="3.0" oneway="1" modes="car" >
			<attributes>
				<attribute name="origid" class="java.lang.String">513676823</attribute>
				<attribute name="type" class="java.lang.String">secondary</attribute>
			</attributes>
		</link>
		<link id="104" from="5020557543" to="65319911" length="21.753452785698023" freespeed="13.411200000000001" capacity="3000.0" permlanes="3.0" oneway="1" modes="car" >
			<attributes>
				<attribute name="origid" class="java.lang.String">513676820</attribute>
				<attribute name="type" class="java.lang.String">secondary</attribute>
			</attributes>
		</link>
		<link id="105" from="65319928" to="5020557542" length="8.661052447636955" freespeed="13.411200000000001" capacity="4000.0" permlanes="4.0" oneway="1" modes="car" >
			<attributes>
				<attribute name="origid" class="java.lang.String">513676819</attribute>
				<attribute name="type" class="java.lang.String">secondary</attribute>
			</attributes>
		</link>
		<link id="106" from="65313138" to="3999644792" length="37.609647924987705" freespeed="8.333333333333334" capacity="3000.0" permlanes="3.0" oneway="1" modes="car" >
			<attributes>
				<attribute name="origid" class="java.lang.String">1050261012</attribute>
				<attribute name="type" class="java.lang.String">secondary</attribute>
			</attributes>
		</link>
		<link id="107" from="1723739359" to="1723739241" length="62.57034665233352" freespeed="6.944444444444445" capacity="600.0" permlanes="1.0" oneway="1" modes="car" >
			<attributes>
				<attribute name="origid" class="java.lang.String">225719777</attribute>
				<attribute name="type" class="java.lang.String">tertiary</attribute>
			</attributes>
		</link>
		<link id="108" from="1723739241" to="1723739359" length="62.57034665233352" freespeed="6.944444444444445" capacity="600.0" permlanes="1.0" oneway="1" modes="car" >
			<attributes>
				<attribute name="origid" class="java.lang.String">225719777</attribute>
				<attribute name="type" class="java.lang.String">tertiary</attribute>
			</attributes>
		</link>
		<link id="109" from="4179555583" to="65334111" length="9.983022681850965" freespeed="8.333333333333334" capacity="4000.0" permlanes="4.0" oneway="1" modes="car" >
			<attributes>
				<attribute name="origid" class="java.lang.String">417396858</attribute>
				<attribute name="type" class="java.lang.String">secondary</attribute>
			</attributes>
		</link>
		<link id="11" from="4104677531" to="65352429" length="41.153001389641986" freespeed="8.333333333333334" capacity="5000.0" permlanes="5.0" oneway="1" modes="car" >
			<attributes>
				<attribute name="origid" class="java.lang.String">408575054</attribute>
				<attribute name="type" class="java.lang.String">secondary</attribute>
			</attributes>
		</link>
		<link id="110" from="65300097" to="65300107" length="121.3096710737435" freespeed="8.333333333333334" capacity="4000.0" permlanes="4.0" oneway="1" modes="car" >
			<attributes>
				<attribute name="origid" class="java.lang.String">111552058</attribute>
				<attribute name="type" class="java.lang.String">secondary</attribute>
			</attributes>
		</link>
		<link id="111" from="1723738833" to="5858516688" length="77.62161661613568" freespeed="6.944444444444445" capacity="600.0" permlanes="1.0" oneway="1" modes="car" >
			<attributes>
				<attribute name="origid" class="java.lang.String">228201785</attribute>
				<attribute name="type" class="java.lang.String">tertiary</attribute>
			</attributes>
		</link>
		<link id="112" from="5858516688" to="1723738833" length="77.62161661613568" freespeed="6.944444444444445" capacity="600.0" permlanes="1.0" oneway="1" modes="car" >
			<attributes>
				<attribute name="origid" class="java.lang.String">228201785</attribute>
				<attribute name="type" class="java.lang.String">tertiary</attribute>
			</attributes>
		</link>