<?xml version="1.0" encoding="UTF-8"?>
<!DOCTYPE network SYSTEM "http://www.matsim.org/files/dtd/network_v2.dtd">
<network>

<!-- ====================================================================== -->

	<nodes>
		<node id="1271001343" x="51805.79774480103" y="28274.205589250854" >
		</node>
		<node id="1271001348" x="51942.018846417166" y="28296.734701067075" >
		</node>
		<node id="1308305528" x="51669.88119391367" y="28199.112452092282" >
		</node>
		<node id="1578907668" x="51694.72010031799" y="28044.731933227995" >
		</node>
		<node id="1580501206" x="51404.80035915781" y="27998.05642883611" >
		</node>
		<node id="1580501214" x="51976.66567540126" y="28089.438115492783" >
		</node>
		<node id="1580501216" x="51259.9668432327" y="27975.08883347571" >
		</node>
		<node id="1723738833" x="51998.621518271364" y="28079.90332449178" >
		</node>
		<node id="1723738887" x="51883.23793430877" y="27964.90351521663" >
		</node>
		<node id="1723738893" x="52229.09731368504" y="28309.585835207996" >
		</node>
		<node id="1723738990" x="52101.58785297455" y="28182.767016544007" >
		</node>
		<node id="1723739121" x="52141.435603036945" y="28222.25616620308" >
		</node>
		<node id="1723739244" x="52281.03140006497" y="28361.324446406798" >
		</node>
		<node id="2331980048" x="52374.24505479404" y="28454.541217033635" >
		</node>
		<node id="258758546" x="50462.14867499225" y="28377.251058859998" >
		</node>
		<node id="258758547" x="50479.25911818963" y="28274.17673490327" >
		</node>
		<node id="258758548" x="50495.06645244678" y="28170.65809459429" >
		</node>
		<node id="258758549" x="50510.90954257721" y="28066.728836662907" >
		</node>
		<node id="258758551" x="50529.25443199366" y="27963.777133539283" >
		</node>
		<node id="267456161" x="50229.56526449261" y="27916.418558056026" >
		</node>
		<node id="2936165726" x="51823.89446110648" y="28170.490752460333" >
		</node>
		<node id="3013377978" x="50672.25750297736" y="27933.78751969841" >
		</node>
		<node id="317122752" x="51774.525123290776" y="28471.936867424105" >
		</node>
		<node id="342548255" x="50331.466990503985" y="28037.79565307009" >
		</node>
		<node id="364825869" x="51757.4110927081" y="28162.069064947438" >
		</node>
		<node id="386885670" x="51719.63066789462" y="28260.391958460656" >
		</node>
		<node id="386885889" x="51748.617286420544" y="28265.05571851052" >
		</node>
		<node id="3902413693" x="51814.107743322216" y="28171.307564999515" >
		</node>
		<node id="3907508666" x="51875.67279133216" y="28392.024260433718" >
		</node>
		<node id="3999644792" x="51652.723160345" y="28037.876018799514" >
		</node>
		<node id="3999654354" x="51631.80429478855" y="27953.733895576173" >
		</node>
		<node id="4013421801" x="50254.3358169141" y="27948.424641698814" >
		</node>
		<node id="4013421806" x="50249.284372573056" y="27930.77534051161" >
		</node>
		<node id="4086362558" x="50835.68709435884" y="28012.8138357032" >
		</node>
		<node id="4086362559" x="51134.72600710798" y="28060.83798962919" >
		</node>
		<node id="4089793022" x="52069.60250262766" y="28381.739926237926" >
		</node>
		<node id="4177105016" x="51092.01676578414" y="28096.694862808912" >
		</node>
		<node id="4177158846" x="51364.81246630262" y="28247.20875336675" >
		</node>
		<node id="4177158847" x="51543.145339509574" y="28338.631011182602" >
		</node>
		<node id="4177168689" x="50768.12783060514" y="28263.391412314075" >
		</node>
		<node id="4177198628" x="51780.09933653395" y="28436.643549150154" >
		</node>
		<node id="4177227589" x="51636.686989703216" y="28247.091221438895" >
		</node>
		<node id="4177227591" x="51764.88537309068" y="28267.649282093695" >
		</node>
		<node id="4177227593" x="52328.974409776856" y="28312.98972200528" >
		</node>
		<node id="4177227594" x="52183.033923086485" y="28334.935380764276" >
		</node>
		<node id="4179555583" x="52098.06213296754" y="28205.074910527903" >
		</node>
		<node id="4179595260" x="51815.0702756" y="28223.18626697578" >
		</node>
		<node id="4184167081" x="51734.6216279847" y="28262.79619699012" >
		</node>
		<node id="427891263" x="50293.55923232868" y="27893.294044414484" >
		</node>
		<node id="4382258034" x="51090.856832685575" y="28159.627600924283" >
		</node>
		<node id="4603528483" x="51769.54046407482" y="27950.47707685252" >
		</node>
		<node id="4603528486" x="51767.14895262096" y="28056.230341960658" >
		</node>
		<node id="5020557546" x="51951.42767295819" y="28238.73411719322" >
		</node>
		<node id="5020786537" x="51738.92788167602" y="28051.755555043248" >
		</node>
		<node id="5020813206" x="50704.778274469514" y="27991.8808849489" >
		</node>
		<node id="5022021593" x="50241.483829843455" y="27915.744734039727" >
		</node>
		<node id="5429620679" x="51754.170196515915" y="27948.00600778081" >
		</node>
		<node id="552853360" x="51677.98142146935" y="28148.092460042895" >
		</node>
		<node id="552853367" x="51652.770168348594" y="28249.68448178656" >
		</node>
		<node id="5828476940" x="51659.88269651063" y="28260.35409347069" >
		</node>
		<node id="5858516685" x="51793.7638702682" y="27875.823054928827" >
		</node>
		<node id="5858516688" x="51943.45244710894" y="28025.301345851716" >
		</node>
		<node id="5858516691" x="52130.03828976063" y="28220.40795491827" >
		</node>
		<node id="5858516694" x="52195.0699728937" y="28275.671080796455" >
		</node>
		<node id="5858516700" x="52348.221616450166" y="28428.310813403597" >
		</node>
		<node id="5922052537" x="51841.74090920724" y="27962.19802087123" >
		</node>
		<node id="5922052538" x="51823.877946371824" y="27959.392679758243" >
		</node>
		<node id="6319217960" x="51624.28877018129" y="28457.83982929564" >
		</node>
		<node id="6378899315" x="51784.38428540976" y="28408.519811744212" >
		</node>
		<node id="6378899319" x="51830.73599317609" y="28384.710976938564" >
		</node>
		<node id="65281835" x="50825.77541870751" y="28223.553305956688" >
		</node>
		<node id="65287111" x="50391.072768941034" y="27835.26123036477" >
		</node>
		<node id="65287125" x="50275.62945756101" y="27906.697050656756" >
		</node>
		<node id="65287128" x="50226.962253207006" y="27932.68945801712" >
		</node>
		<node id="65295340" x="50580.686845003765" y="28504.962938921548" >
		</node>
		<node id="65299782" x="51317.804497687524" y="28195.988488100233" >
		</node>
		<node id="65300097" x="52224.5479494259" y="28025.82919041909" >
		</node>
		<node id="65300107" x="52138.39078332927" y="28111.228063549082" >
		</node>
		<node id="65303533" x="52063.11720307739" y="28422.204886227628" >
		</node>
		<node id="65303538" x="51925.462513802144" y="28400.161451327484" >
		</node>
		<node id="65303541" x="51789.20769677067" y="28377.954472758858" >
		</node>
		<node id="65303544" x="51645.29801860017" y="28354.936107351823" >
		</node>
		<node id="65303546" x="51499.87257704257" y="28331.719826032597" >
		</node>
		<node id="65303548" x="51354.98365121237" y="28308.46193539814" >
		</node>
		<node id="65303550" x="51210.25244915212" y="28285.239954723485" >
		</node>
		<node id="65303552" x="51065.47639527282" y="28262.009402926014" >
		</node>
		<node id="65303553" x="50920.32958943048" y="28238.72576945084" >
		</node>
		<node id="65303554" x="50775.82495853288" y="28215.53370639767" >
		</node>
		<node id="65303556" x="50630.82625799589" y="28192.277426330507" >
		</node>
		<node id="65303559" x="50476.67508465568" y="28167.478137057966" >
		</node>
		<node id="65303560" x="50341.17873868596" y="28145.817025126995" >
		</node>
		<node id="65303561" x="50196.406620280024" y="28122.5462627401" >
		</node>
		<node id="65305814" x="52225.24043688302" y="28341.549926965854" >
		</node>
		<node id="65306993" x="52312.39976081276" y="28206.649452174835" >
		</node>
		<node id="65312472" x="51797.5465727298" y="28326.379726946456" >
		</node>
		<node id="65313133" x="51638.41289349257" y="27929.29610323787" >
		</node>
		<node id="65313138" x="51615.605843183475" y="28031.81051109014" >
		</node>
		<node id="65314146" x="52079.692854189554" y="28318.745118586667" >
		</node>
		<node id="65314156" x="51516.60886895043" y="28227.848341112724" >
		</node>
		<node id="65314158" x="51371.6476849055" y="28204.612330818127" >
		</node>
		<node id="65314161" x="51226.89707404923" y="28181.423353287726" >
		</node>
		<node id="65314163" x="51082.13684632336" y="28158.225818326748" >
		</node>
		<node id="65314166" x="50937.02347666376" y="28134.986305914063" >
		</node>
		<node id="65314171" x="50792.50825217599" y="28111.827249687092" >
		</node>
		<node id="65314173" x="50647.45491332738" y="28088.592862272788" >
		</node>
		<node id="65314175" x="50494.0505143562" y="28064.0376784938" >
		</node>
		<node id="65314180" x="50357.847909633216" y="28042.04310358727" >
		</node>
		<node id="65314183" x="50213.11806952869" y="28018.72766730355" >
		</node>
		<node id="65314187" x="49923.356380672754" y="27972.34854235077" >
		</node>
		<node id="65317028" x="52331.40683883008" y="28310.515850186424" >
		</node>
		<node id="65317030" x="52420.72882839086" y="28220.20366534609" >
		</node>
		<node id="65317939" x="51839.70093035564" y="28067.71834608153" >
		</node>
		<node id="65317945" x="51549.92373950557" y="28021.071094690287" >
		</node>
		<node id="65317951" x="51115.273555711705" y="27951.87965428172" >
		</node>
		<node id="65317954" x="50970.25354418254" y="27928.628503247754" >
		</node>
		<node id="65317956" x="50825.50577985568" y="27905.41329825842" >
		</node>
		<node id="65317957" x="50680.536986870444" y="27882.178367765515" >
		</node>
		<node id="65319946" x="51483.39229150016" y="28435.247390040928" >
		</node>
		<node id="65319949" x="51338.38181555978" y="28412.011933064146" >
		</node>
		<node id="65319951" x="51193.652378438266" y="28388.81243790906" >
		</node>
		<node id="65319956" x="51048.869339936326" y="28365.44897788781" >
		</node>
		<node id="65319958" x="50903.69794418594" y="28341.999133071935" >
		</node>
		<node id="65319961" x="50759.21269581797" y="28318.807363017077" >
		</node>
		<node id="65319964" x="50614.26861774696" y="28295.551387511932" >
		</node>
		<node id="65319966" x="50459.537985102084" y="28270.696732960063" >
		</node>
		<node id="65319968" x="50324.589410136956" y="28249.069350791775" >
		</node>
		<node id="65326740" x="51533.20427622085" y="28124.831493906604" >
		</node>
		<node id="65326742" x="51566.41439952627" y="27917.75461925873" >
		</node>
		<node id="65327158" x="50664.07502623082" y="27985.374516676373" >
		</node>
		<node id="65327163" x="50639.27293305202" y="28139.591631815314" >
		</node>
		<node id="65327167" x="50605.96348017554" y="28347.33821919088" >
		</node>
		<node id="65327169" x="50597.676098358286" y="28399.014075576957" >
		</node>
		<node id="65328687" x="51965.51046872007" y="28151.444673732673" >
		</node>
		<node id="65328690" x="51958.84881267157" y="28192.986250973492" >
		</node>
		<node id="65328694" x="51950.41169700789" y="28244.9825517256" >
		</node>
		<node id="65328697" x="51930.9576751573" y="28365.85604090713" >
		</node>
		<node id="65328700" x="51917.175665264265" y="28451.935887085907" >
		</node>
		<node id="65329978" x="52331.956753713544" y="28186.07046072749" >
		</node>
		<node id="65329980" x="52359.471743497685" y="28158.42545253493" >
		</node>
		<node id="65332806" x="51711.388846531874" y="27941.105041049334" >
		</node>
		<node id="65333814" x="51421.42147424552" y="27894.506636946193" >
		</node>
		<node id="65334111" x="52096.21626689883" y="28214.885798373696" >
		</node>
		<node id="65334120" x="51388.1884960567" y="28101.539678099187" >
		</node>
		<node id="65334123" x="51315.838844352504" y="28089.922540264983" >
		</node>
		<node id="65334125" x="51243.4273328241" y="28078.294914658254" >
		</node>
		<node id="65334128" x="51098.70939872425" y="28055.052713268466" >
		</node>
		<node id="65334133" x="50953.647129781035" y="28031.757435996828" >
		</node>
		<node id="65334137" x="50808.98041788798" y="28008.520346497757" >
		</node>
		<node id="65334139" x="50509.40024159395" y="27960.96293289109" >
		</node>
		<node id="65338019" x="50374.40276366926" y="27939.035052170453" >
		</node>
		<node id="65343963" x="51366.508031172314" y="28236.609588506704" >
		</node>
		<node id="65348742" x="52087.910317604124" y="28267.115112263506" >
		</node>
		<node id="65350760" x="50382.71565644338" y="27887.27022115517" >
		</node>
		<node id="65351772" x="52029.48680427467" y="27828.4964872108" >
		</node>
		<node id="65352450" x="51032.27155321435" y="28468.766513101265" >
		</node>
		<node id="65352454" x="50887.31326866642" y="28445.494619420366" >
		</node>
		<node id="65352457" x="50742.583190841484" y="28422.20315600604" >
		</node>
		<node id="65352459" x="50442.94736322956" y="28374.148628485047" >
		</node>
		<node id="65369279" x="50517.00056841208" y="27908.7873430919" >
		</node>
		<node id="65371286" x="51854.165758404044" y="27971.560554725365" >
		</node>
		<node id="6766380569" x="51975.00560142843" y="28408.099036440908" >
		</node>
		<node id="6988532585" x="51666.713040138784" y="28251.89944331064" >
		</node>
		<node id="6988532586" x="51668.90004426206" y="28246.29525654901" >
		</node>
		<node id="6988532587" x="51662.188014043575" y="28246.18127618501" >
		</node>
		<node id="6988532590" x="51661.384264342116" y="28251.075722508962" >
		</node>
		<node id="6988532615" x="51812.297333929426" y="28238.446558994365" >
		</node>
		<node id="7155175567" x="52194.37824951506" y="28336.71704297155" >
		</node>
		<node id="7155175568" x="52227.342322579156" y="28330.862350261636" >
		</node>
		<node id="7217057124" x="51865.082642456655" y="27946.85857596212" >
		</node>
		<node id="7293111110" x="51724.1989236513" y="27858.665057523842" >
		</node>
		<node id="9097540928" x="51089.64168990804" y="28111.47827210308" >
		</node>
		<node id="9144285420" x="50986.81007904715" y="28037.08597016041" >
		</node>
		<node id="9444088964" x="51730.097649773146" y="28157.628019191554" >
		</node>
		<node id="9497221874" x="50679.53506241872" y="28200.084854805835" >
		</node>
		<node id="9497359810" x="51849.80731961694" y="28174.77606412768" >
		</node>
		<node id="9515570407" x="51192.78358988342" y="28175.94919084121" >
		</node>
		<node id="9515570408" x="51352.17323265492" y="28201.540967848414" >
		</node>
		<node id="9515570409" x="51423.02453039568" y="28212.847023956616" >
		</node>
		<node id="9515570410" x="51488.0183399041" y="28223.263261150667" >
		</node>
		<node id="9552000674" x="50450.713813063485" y="28056.998799195728" >
		</node>
		<node id="9719830972" x="50786.11465754168" y="27899.095466734634" >
		</node>
	</nodes>

<!-- ====================================================================== -->

	<links capperiod="01:00:00" effectivecellsize="7.5" effectivelanewidth="3.75">
		<link id="1" from="65317957" to="3013377978" length="52.26905793415603" freespeed="8.940800000000001" capacity="600.0" permlanes="1.0" oneway="1" modes="car" >
			<attributes>
				<attribute name="origid" class="java.lang.String">515595963</attribute>
				<attribute name="type" class="java.lang.String">tertiary</attribute>
			</attributes>
		</link>
		<link id="10" from="65317956" to="65317954" length="146.59783834429516" freespeed="8.940800000000001" capacity="2000.0" permlanes="2.0" oneway="1" modes="car" >
			<attributes>
				<attribute name="origid" class="java.lang.String">980893267</attribute>
				<attribute name="type" class="java.lang.String">secondary</attribute>
			</attributes>
		</link>
		<link id="100" from="65369279" to="65350760" length="135.99811110394708" freespeed="4.166666666666667" capacity="600.0" permlanes="1.0" oneway="1" modes="car" >
			<attributes>
				<attribute name="origid" class="java.lang.String">8921653</attribute>
				<attribute name="type" class="java.lang.String">residential</attribute>
			</attributes>
		</link>
		<link id="101" from="65350760" to="65369279" length="135.99811110394708" freespeed="4.166666666666667" capacity="600.0" permlanes="1.0" oneway="1" modes="car" >
			<attributes>
				<attribute name="origid" class="java.lang.String">8921653</attribute>
				<attribute name="type" class="java.lang.String">residential</attribute>
			</attributes>
		</link>
		<link id="103" from="6319217960" to="65303544" length="105.78673585729422" freespeed="11.176" capacity="600.0" permlanes="1.0" oneway="1" modes="car" >
			<attributes>
				<attribute name="origid" class="java.lang.String">674757879</attribute>
				<attribute name="type" class="java.lang.String">tertiary</attribute>
			</attributes>
		</link>
		<link id="104" from="9144285420" to="65334133" length="33.58830868560424" freespeed="8.940800000000001" capacity="3000.0" permlanes="3.0" oneway="1" modes="car" >
			<attributes>
				<attribute name="origid" class="java.lang.String">989334073</attribute>
				<attribute name="type" class="java.lang.String">secondary</attribute>
			</attributes>
		</link>
		<link id="105" from="65334133" to="65317954" length="104.4574070364803" freespeed="8.940800000000001" capacity="1800.0" permlanes="3.0" oneway="1" modes="car" >
			<attributes>
				<attribute name="origid" class="java.lang.String">989334074</attribute>
				<attribute name="type" class="java.lang.String">tertiary</attribute>
			</attributes>
		</link>
		<link id="107" from="65303559" to="65303560" length="137.21767355787492" freespeed="4.166666666666667" capacity="1200.0" permlanes="2.0" oneway="1" modes="car" >
			<attributes>
				<attribute name="origid" class="java.lang.String">1043648246</attribute>
				<attribute name="type" class="java.lang.String">residential</attribute>
			</attributes>
		</link>
		<link id="108" from="65334133" to="4086362558" length="119.47146090786097" freespeed="8.940800000000001" capacity="2000.0" permlanes="2.0" oneway="1" modes="car" >
			<attributes>
				<attribute name="origid" class="java.lang.String">989334075</attribute>
				<attribute name="type" class="java.lang.String">secondary</attribute>
			</attributes>
		</link>
		<link id="109" from="65303560" to="65319968" length="104.5765208655734" freespeed="11.176" capacity="3000.0" permlanes="3.0" oneway="1" modes="car" >
			<attributes>
				<attribute name="origid" class="java.lang.String">1043648247</attribute>
				<attribute name="type" class="java.lang.String">secondary</attribute>
			</attributes>
		</link>
		<link id="11" from="65317954" to="65317951" length="146.87212583857857" freespeed="8.940800000000001" capacity="2000.0" permlanes="2.0" oneway="1" modes="car" >
			<attributes>
				<attribute name="origid" class="java.lang.String">980893267</attribute>
				<attribute name="type" class="java.lang.String">secondary</attribute>
			</attributes>
		</link>
		<link id="112" from="4177158846" to="65303548" length="62.03674654694112" freespeed="8.940800000000001" capacity="3000.0" permlanes="3.0" oneway="1" modes="car" >
			<attributes>
				<attribute name="origid" class="java.lang.String">397135724</attribute>
				<attribute name="type" class="java.lang.String">secondary</attribute>
			</attributes>
		</link>
		<link id="114" from="1308305528" to="6988532586" length="48.05839359473183" freespeed="11.176" capacity="600.0" permlanes="1.0" oneway="1" modes="car" >
			<attributes>
				<attribute name="origid" class="java.lang.String">746808402</attribute>
				<attribute name="type" class="java.lang.String">tertiary</attribute>
			</attributes>
		</link>
		<link id="115" from="6988532586" to="6988532585" length="6.015803877661792" freespeed="11.176" capacity="600.0" permlanes="1.0" oneway="1" modes="car" >
			<attributes>
				<attribute name="origid" class="java.lang.String">746808402</attribute>
				<attribute name="type" class="java.lang.String">tertiary</attribute>
			</attributes>
		</link>
		<link id="116" from="6988532585" to="5828476940" length="10.868980124003455" freespeed="11.176" capacity="600.0" permlanes="1.0" oneway="1" modes="car" >
			<attributes>
				<attribute name="origid" class="java.lang.String">746808402</attribute>
				<attribute name="type" class="java.lang.String">tertiary</attribute>
			</attributes>
		</link>
		<link id="117" from="6988532587" to="6988532590" length="4.960001854904346" freespeed="11.176" capacity="600.0" permlanes="1.0" oneway="1" modes="car" >
			<attributes>
				<attribute name="origid" class="java.lang.String">746808401</attribute>
				<attribute name="type" class="java.lang.String">tertiary</attribute>
			</attributes>
		</link>
		<link id="118" from="6988532590" to="6988532587" length="4.960001854904346" freespeed="11.176" capacity="600.0" permlanes="1.0" oneway="1" modes="car" >
			<attributes>
				<attribute name="origid" class="java.lang.String">746808401</attribute>
				<attribute name="type" class="java.lang.String">tertiary</attribute>
			</attributes>
		</link>
		<link id="119" from="65303548" to="65319949" length="104.87241278651794" freespeed="8.333333333333334" capacity="2000.0" permlanes="2.0" oneway="1" modes="car" >
			<attributes>
				<attribute name="origid" class="java.lang.String">397135729</attribute>
				<attribute name="type" class="java.lang.String">secondary</attribute>
			</attributes>
		</link>
		<link id="12" from="65317951" to="1580501216" length="146.54288005880005" freespeed="8.940800000000001" capacity="2000.0" permlanes="2.0" oneway="1" modes="car" >
			<attributes>
				<attribute name="origid" class="java.lang.String">980893267</attribute>
				<attribute name="type" class="java.lang.String">secondary</attribute>
			</attributes>
		</link>
		<link id="121" from="2936165726" to="3902413693" length="9.820744763661594" freespeed="8.333333333333334" capacity="1000.0" permlanes="1.0" oneway="1" modes="car" >
			<attributes>
				<attribute name="origid" class="java.lang.String">746808414</attribute>
				<attribute name="type" class="java.lang.String">secondary</attribute>
			</attributes>
		</link>
		<link id="122" from="258758547" to="65319964" length="136.69337123110805" freespeed="13.411200000000001" capacity="3000.0" permlanes="3.0" oneway="1" modes="car" >
			<attributes>
				<attribute name="origid" class="java.lang.String">502795545</attribute>
				<attribute name="type" class="java.lang.String">secondary</attribute>
			</attributes>
		</link>
		<link id="123" from="6988532615" to="3902413693" length="68.33942009258745" freespeed="6.944444444444445" capacity="600.0" permlanes="1.0" oneway="1" modes="car" >
			<attributes>
				<attribute name="origid" class="java.lang.String">746808418</attribute>
				<attribute name="type" class="java.lang.String">tertiary_link</attribute>
			</attributes>
		</link>
		<link id="126" from="65334139" to="65338019" length="136.7701385048441" freespeed="15.6464" capacity="4500.0" permlanes="3.0" oneway="1" modes="car" >
			<attributes>
				<attribute name="origid" class="java.lang.String">398675753</attribute>
				<attribute name="type" class="java.lang.String">primary</attribute>
			</attributes>
		</link>
		<link id="127" from="65338019" to="4013421806" length="126.12895914908894" freespeed="15.6464" capacity="4500.0" permlanes="3.0" oneway="1" modes="car" >
			<attributes>
				<attribute name="origid" class="java.lang.String">398675753</attribute>
				<attribute name="type" class="java.lang.String">primary</attribute>
			</attributes>
		</link>
		<link id="128" from="6988532590" to="5828476940" length="9.399088980109362" freespeed="11.176" capacity="600.0" permlanes="1.0" oneway="1" modes="car" >
			<attributes>
				<attribute name="origid" class="java.lang.String">512523366</attribute>
				<attribute name="type" class="java.lang.String">tertiary</attribute>
			</attributes>
		</link>
		<link id="129" from="5828476940" to="6988532590" length="9.399088980109362" freespeed="11.176" capacity="600.0" permlanes="1.0" oneway="1" modes="car" >
			<attributes>
				<attribute name="origid" class="java.lang.String">512523366</attribute>
				<attribute name="type" class="java.lang.String">tertiary</attribute>
			</attributes>
		</link>
		<link id="13" from="65303561" to="65314183" length="105.15499721356578" freespeed="11.176" capacity="3000.0" permlanes="3.0" oneway="1" modes="car" >
			<attributes>
				<attribute name="origid" class="java.lang.String">254306573</attribute>
				<attribute name="type" class="java.lang.String">secondary</attribute>
			</attributes>
		</link>
		<link id="130" from="5828476940" to="65303544" length="95.6998968115813" freespeed="11.176" capacity="600.0" permlanes="1.0" oneway="1" modes="car" >
			<attributes>
				<attribute name="origid" class="java.lang.String">512523366</attribute>
				<attribute name="type" class="java.lang.String">tertiary</attribute>
			</attributes>
		</link>
		<link id="131" from="65303544" to="5828476940" length="95.6998968115813" freespeed="11.176" capacity="600.0" permlanes="1.0" oneway="1" modes="car" >
			<attributes>
				<attribute name="origid" class="java.lang.String">512523366</attribute>
				<attribute name="type" class="java.lang.String">tertiary</attribute>
				<attribute name="type" class="java.lang.String">tertiary</attribute>
			</attributes>
		</link>
		<link id="132" from="65352459" to="65319966" length="104.81141764008494" freespeed="11.176" capacity="6000.0" permlanes="3.0" oneway="1" modes="car" >
			<attributes>
				<attribute name="origid" class="java.lang.String">771449105</attribute>
				<attribute name="type" class="java.lang.String">trunk</attribute>
			</attributes>
		</link>
		<link id="133" from="9552000674" to="65314175" length="43.904722339452874" freespeed="6.944444444444445" capacity="1800.0" permlanes="3.0" oneway="1" modes="car" >
			<attributes>
				<attribute name="origid" class="java.lang.String">1036842274</attribute>
				<attribute name="type" class="java.lang.String">tertiary</attribute>
			</attributes>
		</link>
		<link id="135" from="65317957" to="9719830972" length="106.92442556261278" freespeed="8.940800000000001" capacity="2000.0" permlanes="2.0" oneway="1" modes="car" >
			<attributes>
				<attribute name="origid" class="java.lang.String">766798669</attribute>
				<attribute name="type" class="java.lang.String">secondary</attribute>
			</attributes>
		</link>
		<link id="136" from="5922052537" to="5922052538" length="18.08190753266156" freespeed="6.944444444444445" capacity="1200.0" permlanes="2.0" oneway="1" modes="car" >
			<attributes>
				<attribute name="origid" class="java.lang.String">772972818</attribute>
				<attribute name="type" class="java.lang.String">tertiary</attribute>
			</attributes>
		</link>
		<link id="137" from="1723738887" to="7217057124" length="25.59754783049103" freespeed="6.944444444444445" capacity="600.0" permlanes="1.0" oneway="1" modes="car" >
			<attributes>
				<attribute name="origid" class="java.lang.String">772972816</attribute>
				<attribute name="type" class="java.lang.String">tertiary</attribute>
			</attributes>
		</link>
		<link id="138" from="7217057124" to="1723738887" length="25.59754783049103" freespeed="6.944444444444445" capacity="600.0" permlanes="1.0" oneway="1" modes="car" >
			<attributes>
				<attribute name="origid" class="java.lang.String">772972816</attribute>
				<attribute name="type" class="java.lang.String">tertiary</attribute>
			</attributes>
		</link>
		<link id="139" from="5922052537" to="7217057124" length="28.814580018912782" freespeed="6.944444444444445" capacity="600.0" permlanes="1.0" oneway="1" modes="car" >
			<attributes>
				<attribute name="origid" class="java.lang.String">772972817</attribute>
				<attribute name="type" class="java.lang.String">tertiary</attribute>
			</attributes>
		</link>
		<link id="14" from="65314183" to="65287128" length="87.144911143407" freespeed="11.176" capacity="3000.0" permlanes="3.0" oneway="1" modes="car" >
			<attributes>
				<attribute name="origid" class="java.lang.String">254306573</attribute>
				<attribute name="type" class="java.lang.String">secondary</attribute>
			</attributes>
		</link>
		<link id="140" from="9497359810" to="2936165726" length="26.264837103424746" freespeed="8.333333333333334" capacity="3000.0" permlanes="3.0" oneway="1" modes="car" >
			<attributes>
				<attribute name="origid" class="java.lang.String">1030287469</attribute>
				<attribute name="type" class="java.lang.String">secondary</attribute>
			</attributes>
		</link>
		<link id="141" from="65303560" to="65303561" length="146.63047221166937" freespeed="4.166666666666667" capacity="1200.0" permlanes="2.0" oneway="1" modes="car" >
			<attributes>
				<attribute name="origid" class="java.lang.String">86303778</attribute>
				<attribute name="type" class="java.lang.String">residential</attribute>
			</attributes>
		</link>
		<link id="142" from="65317030" to="65317028" length="127.02265130622506" freespeed="6.944444444444445" capacity="900.0" permlanes="1.5" oneway="1" modes="car" >
			<attributes>
				<attribute name="origid" class="java.lang.String">88597577</attribute>
				<attribute name="type" class="java.lang.String">tertiary</attribute>
			</attributes>
		</link>
		<link id="143" from="65317028" to="65317030" length="127.02265130622506" freespeed="6.944444444444445" capacity="900.0" permlanes="1.5" oneway="1" modes="car" >
			<attributes>
				<attribute name="origid" class="java.lang.String">88597577</attribute>
				<attribute name="type" class="java.lang.String">tertiary</attribute>
			</attributes>
		</link>
		<link id="144" from="65317939" to="65371286" length="97.24103214345938" freespeed="6.944444444444445" capacity="1800.0" permlanes="3.0" oneway="1" modes="car" >
			<attributes>
				<attribute name="origid" class="java.lang.String">981636498</attribute>
				<attribute name="type" class="java.lang.String">tertiary</attribute>
			</attributes>
		</link>
		<link id="145" from="65317939" to="1580501214" length="138.67621772759804" freespeed="8.333333333333334" capacity="2000.0" permlanes="2.0" oneway="1" modes="car" >
			<attributes>
				<attribute name="origid" class="java.lang.String">981636499</attribute>