<?xml version="1.0" encoding="utf-8"?>
<!DOCTYPE population SYSTEM "http://www.matsim.org/files/dtd/population_v5.dtd">

<population>

<!-- ====================================================================== -->

	<person id="0011">
		<plan selected="yes">
			<act type="home" link="25637" end_time="12:19:30" />
			<leg mode="car"/>
			<act type="other" link="25666" end_time="12:29:02" />
			<leg mode="car"/>
			<act type="home" link="25637" />
		</plan>

	</person>

<!-- ====================================================================== -->

	<person id="0012">
		<plan selected="yes">
			<act type="home" link="25704" end_time="12:27:57" />
			<leg mode="car"/>
			<act type="other" link="25741" end_time="14:32:09" />
			<leg mode="car"/>
			<act type="home" link="25704" end_time="16:46:04" />
			<leg mode="car"/>
			<act type="other" link="25761" end_time="17:02:45" />
			<leg mode="car"/>
			<act type="home" link="25704" />
		</plan>

	</person>

<!-- ====================================================================== -->

	<person id="0013">
		<plan selected="yes">
			<act type="home" link="25771" end_time="07:43:04" />
			<leg mode="car"/>
			<act type="other" link="25810" end_time="14:55:30" />
			<leg mode="car"/>
			<act type="home" link="25771" />
		</plan>

	</person>

<!-- ====================================================================== -->

	<person id="0014">
		<plan selected="yes">
			<act type="home" link="25844" end_time="09:14:20" />
			<leg mode="car" />
			<act type="other" link="25897" end_time="20:08:02" />
			<leg mode="car" />
			<act type="home" link="25844" />
		</plan>

	</person>

<!-- ====================================================================== -->

	<person id="0015">
		<plan selected="yes">
			<act type="home" link="25917" end_time="09:14:20" />
			<leg mode="car"/>
			<act type="other" link="26002" end_time="20:08:02" />
			<leg mode="car"/>
			<act type="home" link="25917" />
		</plan>

	</person>

<!-- ====================================================================== -->

</population>