<?xml version="1.0" encoding="UTF-8"?>
<!DOCTYPE network SYSTEM "http://www.matsim.org/files/dtd/network_v2.dtd">
<network>

<!-- ====================================================================== -->

	<nodes>
		<node id="1218495946" x="318500.331350088" y="4176517.262989067" >
		</node>
		<node id="1312187813" x="316948.8426196219" y="4169059.353750903" >
		</node>
		<node id="1449188243" x="308896.61243740865" y="4172784.9502619137" >
		</node>
		<node id="1450268256" x="319886.3538098701" y="4176507.1400578693" >
		</node>
		<node id="1450271603" x="320203.2446414996" y="4176374.9566627885" >
		</node>
		<node id="1450271604" x="320214.0227222561" y="4175869.027283428" >
		</node>
		<node id="1450271606" x="318483.3649106516" y="4175601.144673035" >
		</node>
		<node id="1450271608" x="320181.1278244232" y="4176140.6926070224" >
		</node>
		<node id="1450271614" x="320351.36077071936" y="4176039.622776947" >
		</node>
		<node id="1450271617" x="320257.6989215972" y="4176364.3005023766" >
		</node>
		<node id="1450271619" x="320168.5125740357" y="4176395.0527693327" >
		</node>
		<node id="1450271620" x="320104.40073243214" y="4176448.939316039" >
		</node>
		<node id="1450271633" x="320178.265190276" y="4176320.136686636" >
		</node>
		<node id="1450271636" x="320034.07457890327" y="4175956.623230956" >
		</node>
		<node id="1450271638" x="320033.275295341" y="4176051.405060565" >
		</node>
		<node id="1450271640" x="319471.7966439241" y="4176596.2328607817" >
		</node>
		<node id="1450271643" x="320105.26577086025" y="4176225.6867821" >
		</node>
		<node id="1450271646" x="320478.0953667749" y="4176218.854940236" >
		</node>
		<node id="1450271648" x="320260.3837646487" y="4176072.9661900527" >
		</node>
		<node id="1450271651" x="320307.3256099035" y="4176319.456631764" >
		</node>
		<node id="1450271654" x="320407.3825308052" y="4176242.7080938458" >
		</node>
		<node id="1450271655" x="319260.36188976595" y="4176550.159902871" >
		</node>
		<node id="1450271660" x="320292.946754637" y="4175897.7047599396" >
		</node>
		<node id="1450271666" x="320412.4967970159" y="4176018.5754507794" >
		</node>
		<node id="1450271667" x="320374.2781450936" y="4175958.4033882055" >
		</node>
		<node id="1450271672" x="320022.1332450239" y="4176474.1913641044" >
		</node>
		<node id="1450271804" x="319282.6346928058" y="4176792.7682563453" >
		</node>
		<node id="1567928065" x="331663.1381580173" y="4162303.630428424" >
		</node>
		<node id="1568016245" x="316571.0891867414" y="4171952.7189823315" >
		</node>
		<node id="1568016255" x="316661.69441595953" y="4172945.9853879893" >
		</node>
		<node id="1568016302" x="317157.3080320465" y="4173832.900749456" >
		</node>
		<node id="1568016347" x="317190.1052843" y="4173967.0740625244" >
		</node>
		<node id="1568016573" x="317150.3423349997" y="4173843.424172618" >
		</node>
		<node id="1568016613" x="316677.5846274735" y="4172437.0530276843" >
		</node>
		<node id="1568016717" x="317143.0934998875" y="4173951.517562929" >
		</node>
		<node id="1765374003" x="322365.6363555986" y="4180817.31985748" >
		</node>
		<node id="1765374009" x="322372.58461146656" y="4180636.3243412324" >
		</node>
		<node id="1765379457" x="320089.1932747144" y="4178008.2011495424" >
		</node>
		<node id="1765379501" x="319539.05753086694" y="4177360.962622803" >
		</node>
		<node id="1765379506" x="319292.3446009476" y="4176812.9273847556" >
		</node>
		<node id="1783239005" x="318959.6118565768" y="4177253.005086602" >
		</node>
		<node id="1783239078" x="319601.99361548014" y="4176696.8981204866" >
		</node>
		<node id="1783239079" x="319604.8276355312" y="4176778.1122926855" >
		</node>
		<node id="1783239080" x="319605.12930351705" y="4176816.1070965566" >
		</node>
		<node id="1783239081" x="319700.5304844662" y="4176694.744168296" >
		</node>
		<node id="1783241351" x="319782.2820352824" y="4176773.1793944594" >
		</node>
		<node id="1783241353" x="319866.5121873231" y="4176771.3398988517" >
		</node>
		<node id="1783241355" x="319949.6729781112" y="4176768.9917169875" >
		</node>
		<node id="1783241357" x="320032.8340093238" y="4176766.6554711307" >
		</node>
		<node id="1783241358" x="320098.5275141705" y="4176765.222719073" >
		</node>
		<node id="1783241359" x="319780.66745593236" y="4176675.0417384026" >
		</node>
		<node id="1783241362" x="319863.7488093275" y="4176669.008698464" >
		</node>
		<node id="1783241367" x="319947.4395021255" y="4176666.6489849123" >
		</node>
		<node id="1783241382" x="320030.3718716486" y="4176678.0395233156" >
		</node>
		<node id="1783241387" x="320132.8949456833" y="4176591.352875375" >
		</node>
		<node id="1783241390" x="320170.7598542761" y="4176674.9783933074" >
		</node>
		<node id="1783241409" x="320065.13590581785" y="4176352.144596059" >
		</node>
		<node id="1783241410" x="320031.57331084425" y="4176514.395799304" >
		</node>
		<node id="1783241411" x="320125.2599222545" y="4176490.3158938778" >
		</node>
		<node id="1783251176" x="320200.25341513613" y="4176433.161593142" >
		</node>
		<node id="1783251179" x="320346.3309505074" y="4176351.4017637577" >
		</node>
		<node id="1783251186" x="320417.5202615339" y="4176289.9250578126" >
		</node>
		<node id="1783251187" x="320502.8977566458" y="4176257.1047259765" >
		</node>
		<node id="1783251189" x="320294.6158098053" y="4176429.1186750643" >
		</node>
		<node id="1783257382" x="320455.61541224545" y="4175905.5211332384" >
		</node>
		<node id="1783257402" x="320330.7874701987" y="4175826.240661366" >
		</node>
		<node id="1783257405" x="320497.0261322906" y="4175935.682837127" >
		</node>
		<node id="1783257415" x="320186.12194292195" y="4175943.6947322013" >
		</node>
		<node id="1783257416" x="320230.3342715184" y="4175968.8205336197" >
		</node>
		<node id="1783257420" x="319940.7251584787" y="4176037.6594876414" >
		</node>
		<node id="1783257425" x="320038.5842607198" y="4175814.8001871444" >
		</node>
		<node id="1783257428" x="320131.7900427211" y="4175778.8080822895" >
		</node>
		<node id="1783257430" x="320239.32705674344" y="4175789.7204973144" >
		</node>
		<node id="1783257434" x="320232.0115696242" y="4175702.0763933635" >
		</node>
		<node id="1783257437" x="320139.7213056898" y="4175684.6258594454" >
		</node>
		<node id="1783257439" x="320151.52703217213" y="4175634.666193746" >
		</node>
		<node id="1783257448" x="320159.969483841" y="4176029.3593264665" >
		</node>
		<node id="1783260163" x="318608.2801610748" y="4175847.8678083285" >
		</node>
		<node id="1783260167" x="318753.4344181361" y="4175942.652313499" >
		</node>
		<node id="1783260171" x="318682.1262039079" y="4176021.23220554" >
		</node>
		<node id="1783260173" x="318642.98291201575" y="4176038.7784231706" >
		</node>
		<node id="1783414084" x="317531.061602663" y="4175848.434229618" >
		</node>
		<node id="1783414087" x="317475.55683536927" y="4175774.5681688515" >
		</node>
		<node id="1783414099" x="317511.7646606396" y="4175985.270330444" >
		</node>
		<node id="1783414101" x="317513.458544755" y="4176061.869512463" >
		</node>
		<node id="1783414103" x="317515.1355235586" y="4176137.703043257" >
		</node>
		<node id="1783414105" x="317515.2953946126" y="4176214.325064088" >
		</node>
		<node id="1783414107" x="317516.9724398585" y="4176290.158610498" >
		</node>
		<node id="1783414108" x="317517.1201472591" y="4176331.532265052" >
		</node>
		<node id="1783414109" x="317682.8316240201" y="4176285.9372081673" >
		</node>
		<node id="1783414135" x="317682.1252932901" y="4176210.8594055083" >
		</node>
		<node id="1783414138" x="317682.4738153063" y="4176133.2270678505" >
		</node>
		<node id="1783414172" x="317685.1479552506" y="4176378.398367127" >
		</node>
		<node id="1783414181" x="317523.6489030082" y="4176383.48927685" >
		</node>
		<node id="1783414187" x="317673.6821471048" y="4174979.8106440515" >
		</node>
		<node id="1783414188" x="317628.9831329484" y="4174980.79801509" >
		</node>
		<node id="1783414189" x="317628.40465886745" y="4174935.0487492913" >
		</node>
		<node id="1783414191" x="317625.54491313954" y="4175041.967753817" >
		</node>
		<node id="1783414192" x="317562.6868721192" y="4175044.655632533" >
		</node>
		<node id="1783414193" x="317560.85154886195" y="4174929.680414816" >
		</node>
		<node id="1783414194" x="317493.85839715955" y="4174930.495115099" >
		</node>
		<node id="1783414196" x="317499.83971485856" y="4175043.4469785946" >
		</node>
		<node id="1783414204" x="318058.6097817364" y="4174890.29643838" >
		</node>
		<node id="1783414210" x="317672.96783298976" y="4174877.5779288206" >
		</node>
		<node id="1783414221" x="318198.4638915493" y="4175368.5476317736" >
		</node>
		<node id="1783414222" x="318109.25644758326" y="4175391.773071864" >
		</node>
		<node id="1783414225" x="318084.79764700873" y="4175426.972158361" >
		</node>
		<node id="1783414228" x="318064.30709679617" y="4175326.4744315096" >
		</node>
		<node id="1783466803" x="318191.91231735377" y="4175465.1338602607" >
		</node>
		<node id="1783489313" x="318238.402758957" y="4175435.0785553027" >
		</node>
		<node id="1783489314" x="318475.58333776874" y="4175288.2215697956" >
		</node>
		<node id="1783489318" x="318896.52426877775" y="4174314.495095592" >
		</node>
		<node id="1783489321" x="318866.6746456776" y="4174308.1335325213" >
		</node>
		<node id="1783489326" x="318707.01296918537" y="4174325.981171981" >
		</node>
		<node id="1783489329" x="318680.16690444795" y="4174325.849053051" >
		</node>
		<node id="1783489330" x="318677.4401416407" y="4174315.761880451" >
		</node>
		<node id="1783489331" x="318692.02471636026" y="4174300.6318001514" >
		</node>
		<node id="1783489332" x="318708.0388932043" y="4174309.2282242123" >
		</node>
		<node id="1783489334" x="318741.9787338461" y="4174326.3014848726" >
		</node>
		<node id="1783489355" x="318686.21941764443" y="4174364.061787431" >
		</node>
		<node id="1783489359" x="318742.95310980175" y="4174495.2495682514" >
		</node>
		<node id="1783503630" x="318207.0170789865" y="4174110.6191620077" >
		</node>
		<node id="1783503631" x="318272.86835684674" y="4174110.546281876" >
		</node>
		<node id="1783503712" x="317917.6261595322" y="4174009.829128619" >
		</node>
		<node id="1783503715" x="317915.54555811593" y="4174203.1140623805" >
		</node>
		<node id="1783503717" x="317660.6911458469" y="4174209.4374088366" >
		</node>
		<node id="1783503722" x="317426.2638907207" y="4174581.036018986" >
		</node>
		<node id="1783503737" x="317092.7534288466" y="4174435.2555846823" >
		</node>
		<node id="1783503743" x="317338.035107401" y="4174415.9703059895" >
		</node>
		<node id="1783503744" x="317415.9834180261" y="4174414.5237555965" >
		</node>
		<node id="1783503745" x="317663.9278325309" y="4174409.9326497884" >
		</node>
		<node id="1783503746" x="317339.8206961854" y="4174517.8130953666" >
		</node>
		<node id="1783503747" x="317417.76190988766" y="4174516.089114026" >
		</node>
		<node id="1783529409" x="317066.1128541709" y="4174362.3842772692" >
		</node>
		<node id="1783529429" x="317103.32080027356" y="4174348.8149719574" >
		</node>
		<node id="1783529433" x="317231.23825828696" y="4174340.7756449333" >
		</node>
		<node id="1783529440" x="317236.65549507097" y="4174284.2246620883" >
		</node>
		<node id="1783529446" x="317230.130479231" y="4174189.5031747334" >
		</node>
		<node id="1783529447" x="317145.3015295227" y="4174187.473390582" >
		</node>
		<node id="1783529459" x="317086.8407243872" y="4174285.8213019883" >
		</node>
		<node id="1783529474" x="317507.4365055072" y="4173846.2496159095" >
		</node>
		<node id="1783529733" x="318555.7373783047" y="4173659.553977827" >
		</node>
		<node id="1783529738" x="318343.37014363916" y="4173570.345500446" >
		</node>
		<node id="1783529791" x="318464.4870257246" y="4173299.7291113767" >
		</node>
		<node id="1783605563" x="318988.1409950276" y="4172868.6342414296" >
		</node>
		<node id="1784370359" x="318804.4322808554" y="4170838.05473281" >
		</node>
		<node id="1784370368" x="318668.7689368748" y="4170971.763770223" >
		</node>
		<node id="1784370380" x="318265.16027782415" y="4170072.358721344" >
		</node>
		<node id="1784370381" x="318181.81914629077" y="4170432.411835019" >
		</node>
		<node id="1784370382" x="318177.8263670503" y="4170268.5153503697" >
		</node>
		<node id="1784370383" x="317814.9735976979" y="4170121.37770493" >
		</node>
		<node id="1784370384" x="317775.2957774685" y="4170120.7200417267" >
		</node>
		<node id="1784370385" x="317906.24166948017" y="4170118.9785790406" >
		</node>
		<node id="1784370386" x="317949.26490238926" y="4170117.6537003657" >
		</node>
		<node id="1784370388" x="317075.3010838387" y="4169991.19811478" >
		</node>
		<node id="1784370407" x="316932.78045042494" y="4169836.6281768708" >
		</node>
		<node id="1784373900" x="316615.5396256677" y="4169499.9323167326" >
		</node>
		<node id="1784373901" x="316801.1302593838" y="4169685.716340275" >
		</node>
		<node id="1784373902" x="316947.0115628062" y="4169821.2256926" >
		</node>
		<node id="1784373904" x="316786.4711804426" y="4169699.729720114" >
		</node>
		<node id="1784373914" x="317810.08695153985" y="4169813.077505892" >
		</node>
		<node id="1784373915" x="317811.3371821295" y="4169852.194880874" >
		</node>
		<node id="1784388158" x="316591.15440002177" y="4168909.3647227758" >
		</node>
		<node id="1784388164" x="316396.98344773275" y="4168735.265229597" >
		</node>
		<node id="1784388166" x="316411.9367858018" y="4168670.0206292565" >
		</node>
		<node id="1784388167" x="316411.361010597" y="4168588.7898409963" >
		</node>
		<node id="1784388169" x="316400.32565090206" y="4168516.361849033" >
		</node>
		<node id="1784388170" x="316358.4933238701" y="4168460.3821371114" >
		</node>
		<node id="1784388173" x="316549.53830877994" y="4168515.5050583426" >
		</node>
		<node id="1784388174" x="316560.184446524" y="4168588.752239041" >
		</node>
		<node id="1784388176" x="316589.70403181994" y="4168662.813248768" >
		</node>
		<node id="1784388178" x="316593.6508705606" y="4168748.4543651" >
		</node>
		<node id="1784388181" x="316593.97733607405" y="4168828.469403366" >
		</node>
		<node id="1784388184" x="316586.70790509024" y="4168989.885290491" >
		</node>
		<node id="1784388185" x="316481.7861598093" y="4168990.9802930844" >
		</node>
		<node id="1784388187" x="316470.9856648585" y="4168910.797901659" >
		</node>
		<node id="1784388189" x="316479.0579640683" y="4168831.018311261" >
		</node>
		<node id="1784388203" x="314066.9921510527" y="4167251.9403142123" >
		</node>
		<node id="1784388208" x="314402.40425109287" y="4167599.520656141" >
		</node>
		<node id="1784388209" x="314304.59639122384" y="4167688.732676096" >
		</node>
		<node id="1784388212" x="314232.94710781693" y="4167854.8953219657" >
		</node>
		<node id="1784388213" x="314510.0964850257" y="4167710.513026112" >
		</node>
		<node id="1784388214" x="314272.72031801427" y="4167652.74475316" >
		</node>
		<node id="1784388216" x="314426.69935948844" y="4167851.779947404" >
		</node>
		<node id="1784388220" x="314291.2062800651" y="4167941.016082151" >
		</node>
		<node id="1784388221" x="314026.7888214404" y="4167859.1156161106" >
		</node>
		<node id="1784388222" x="314070.44170325354" y="4167866.383409968" >
		</node>
		<node id="1784388229" x="314520.354326825" y="4167854.2207311573" >
		</node>
		<node id="1784388236" x="314494.5662751285" y="4168033.7856428567" >
		</node>
		<node id="1784388275" x="313917.67299746827" y="4167850.7221183614" >
		</node>
		<node id="1784409225" x="315440.7624373224" y="4170744.5542742233" >
		</node>
		<node id="1784409228" x="315522.06823610305" y="4170779.642443588" >
		</node>
		<node id="1784409232" x="315525.1742685089" y="4170878.8804575955" >
		</node>
		<node id="1784409236" x="315437.3144469842" y="4170831.637625852" >
		</node>
		<node id="1784566071" x="315369.5220571323" y="4170609.723700063" >
		</node>
		<node id="1784566083" x="315107.7843701573" y="4170588.084856796" >
		</node>
		<node id="1784566086" x="315056.2362009009" y="4170572.396137533" >
		</node>
		<node id="1784566087" x="315017.48029549804" y="4170571.4869308467" >
		</node>
		<node id="1784566092" x="315192.613071269" y="4170559.143558833" >
		</node>
		<node id="1784566094" x="315287.4077916129" y="4170557.9131369507" >
		</node>
		<node id="1784566106" x="315369.7713384076" y="4170556.472935484" >
		</node>
		<node id="1784566111" x="315370.17710508005" y="4170521.29273664" >
		</node>
		<node id="1784566127" x="315059.7972230394" y="4170811.2543187803" >
		</node>
		<node id="1784566133" x="315063.0527969828" y="4170978.0672208713" >
		</node>
		<node id="1784566160" x="315117.44977056567" y="4170701.7976467027" >
		</node>
		<node id="1784566175" x="315019.1786282486" y="4170727.0549872573" >
		</node>
		<node id="1784566177" x="315127.56600684184" y="4170815.944452103" >
		</node>
		<node id="1784566188" x="315171.5550810038" y="4170780.9774837242" >
		</node>
		<node id="1784652176" x="315184.9348684163" y="4170932.576186832" >
		</node>
		<node id="1784652195" x="315382.5318608054" y="4171288.998097292" >
		</node>
		<node id="1784652196" x="314844.44296820974" y="4171332.9534565685" >
		</node>
		<node id="1784652200" x="315063.62321295496" y="4171300.5575043014" >
		</node>
		<node id="1784652205" x="315059.53677254234" y="4171217.317040956" >
		</node>
		<node id="1784652206" x="314782.49236985086" y="4171290.011011433" >
		</node>
		<node id="1784652212" x="314991.6434086947" y="4171395.758675271" >
		</node>
		<node id="1784652214" x="314994.29256077175" y="4171497.1498828456" >
		</node>
		<node id="1784652218" x="314966.8946768751" y="4171692.3600232024" >
		</node>
		<node id="1784652222" x="314862.78110571613" y="4171654.802116799" >
		</node>
		<node id="1784652226" x="314877.0612958509" y="4171576.9010185003" >
		</node>
		<node id="1784652230" x="314960.366841414" y="4171500.1298134224" >
		</node>
		<node id="1784652231" x="314233.668952008" y="4171471.2246299074" >
		</node>
		<node id="1784652234" x="314484.1745369934" y="4171479.0312213157" >
		</node>
		<node id="1784652236" x="314601.264311117" y="4171473.306227971" >
		</node>
		<node id="1784652241" x="314479.59572196327" y="4171234.943598907" >
		</node>
		<node id="1784652250" x="314523.5691145243" y="4171559.691841427" >
		</node>
		<node id="1784652251" x="314525.0080233166" y="4171643.8577836677" >
		</node>
		<node id="1784652261" x="314630.23391541047" y="4172106.57424528" >
		</node>
		<node id="1784739141" x="314481.14669889" y="4171317.408382703" >
		</node>
		<node id="1784739142" x="314561.05194273917" y="4171316.0592644415" >
		</node>
		<node id="1784739143" x="314482.6558674362" y="4171398.0089641977" >
		</node>
		<node id="1784739144" x="314582.5195868583" y="4171395.7679428933" >
		</node>
		<node id="1784739146" x="314615.0981873434" y="4171551.8428693786" >
		</node>
		<node id="1784739147" x="314234.7573570601" y="4171650.3771289443" >
		</node>
		<node id="1784739148" x="314285.3404353674" y="4171649.24024399" >
		</node>
		<node id="1784739149" x="314360.9107517088" y="4171647.5423331666" >
		</node>
		<node id="1784739150" x="314442.2846589348" y="4171645.714800801" >
		</node>
		<node id="1784739152" x="314620.92689465865" y="4171631.9024469694" >
		</node>
		<node id="1784739153" x="314545.7052187857" y="4171735.2519680993" >
		</node>
		<node id="1784739155" x="314649.56630413805" y="4171712.338547793" >
		</node>
		<node id="1784739156" x="314440.9649975707" y="4171566.8973540957" >
		</node>
		<node id="1784739157" x="314359.55133289413" y="4171567.382391569" >
		</node>
		<node id="1784739160" x="314558.8392838056" y="4172114.84859125" >
		</node>
		<node id="1784739162" x="314478.36081633234" y="4172116.6551497523" >
		</node>
		<node id="1784739164" x="314403.1048021915" y="4172112.11690351" >
		</node>
		<node id="1784739167" x="314290.84358524904" y="4171933.7746881843" >
		</node>
		<node id="1784739171" x="314238.93226863386" y="4172123.8218559846" >
		</node>
		<node id="1784739173" x="314366.241681769" y="4171944.559308134" >
		</node>
		<node id="1784739174" x="314367.1630101844" y="4171906.225239969" >
		</node>
		<node id="1784739177" x="314236.18728391035" y="4171928.319737108" >
		</node>
		<node id="1784824548" x="315096.7133767584" y="4172607.682896095" >
		</node>
		<node id="1784867626" x="316433.56515177747" y="4173051.0471187695" >
		</node>
		<node id="1784867629" x="315699.5990532218" y="4172650.8095648456" >
		</node>
		<node id="1784867635" x="315676.98701079545" y="4173004.025174741" >
		</node>
		<node id="1784867664" x="314454.33103304013" y="4172800.596189187" >
		</node>
		<node id="1784867686" x="315721.2202877705" y="4173666.550772542" >
		</node>
		<node id="1784867687" x="315722.9467355011" y="4173762.900088322" >
		</node>
		<node id="1784867688" x="315617.4773844557" y="4173668.4333112827" >
		</node>
		<node id="1784867689" x="315620.19891927106" y="4173733.4305026354" >
		</node>
		<node id="1784867690" x="315517.55307874444" y="4173670.254056339" >
		</node>
		<node id="1784867691" x="315520.16102419" y="4173729.736081262" >
		</node>
		<node id="1784867692" x="315411.2498488298" y="4173671.6634811223" >
		</node>
		<node id="1784867693" x="315409.5685990441" y="4173558.5489159054" >
		</node>
		<node id="1784867694" x="315086.6518025137" y="4174106.233155285" >
		</node>
		<node id="1784867696" x="314979.65764878545" y="4174082.872952133" >
		</node>
		<node id="1784867714" x="314878.1118963682" y="4174005.8687014566" >
		</node>
		<node id="1784867715" x="314898.53839074343" y="4174025.316877162" >
		</node>
		<node id="1784867741" x="314974.4455158615" y="4173882.1417074036" >
		</node>
		<node id="1784972523" x="315803.5957518303" y="4175311.9449369623" >
		</node>
		<node id="1784972526" x="315720.0056554523" y="4175306.8830232546" >
		</node>
		<node id="1784972540" x="315846.9321759851" y="4175474.888693841" >
		</node>
		<node id="1784972677" x="316746.3193398557" y="4174532.086199369" >
		</node>
		<node id="1785622496" x="323370.12527136656" y="4170926.4381094794" >
		</node>
		<node id="1785622497" x="323867.59689900634" y="4170283.6238143924" >
		</node>
		<node id="1785645493" x="327550.24153728684" y="4167812.3628538814" >
		</node>
		<node id="1785653101" x="327540.3945023257" y="4169086.1435962054" >
		</node>
		<node id="1785658425" x="328655.39703319257" y="4166811.5232372894" >
		</node>
		<node id="1785746457" x="324413.7241112873" y="4168212.999090058" >
		</node>
		<node id="1785746464" x="324244.94158522127" y="4168154.6268860246" >
		</node>
		<node id="1785746517" x="325210.26965768484" y="4168251.371195746" >
		</node>
		<node id="1785746667" x="323281.926073267" y="4168361.0108533762" >
		</node>
		<node id="1785834449" x="323170.4877834987" y="4168011.468373835" >
		</node>
		<node id="1785903794" x="323326.0123719934" y="4165271.441246183" >
		</node>
		<node id="1785903798" x="323378.3679988639" y="4165240.362070012" >
		</node>
		<node id="1785903804" x="323387.3035582629" y="4165268.0578934858" >
		</node>
		<node id="1785904038" x="322746.53580840095" y="4166268.868050757" >
		</node>
		<node id="1785924279" x="324308.3926580419" y="4166731.3097209833" >
		</node>
		<node id="1785924280" x="324329.85296470125" y="4166729.9328218917" >
		</node>
		<node id="1785924291" x="324683.41703845107" y="4167063.4987414046" >
		</node>
		<node id="1785924306" x="325069.860048758" y="4167400.6460736785" >
		</node>
		<node id="1785924323" x="324817.0633624939" y="4166592.1650484367" >
		</node>
		<node id="1785924329" x="324839.6035332201" y="4166830.3747279635" >
		</node>
		<node id="1785924336" x="324669.02082181454" y="4166427.2051862907" >
		</node>
		<node id="1785924431" x="324444.7210417386" y="4167631.1579151396" >
		</node>
		<node id="1785924436" x="324299.0430739651" y="4166579.9208857385" >
		</node>
		<node id="1785924440" x="324306.6749862656" y="4166418.6911922432" >
		</node>
		<node id="1785924459" x="324597.57211434026" y="4166604.1511734254" >
		</node>
		<node id="1785935295" x="319264.0663535767" y="4167613.4046397805" >
		</node>
		<node id="1785935317" x="319457.95956417295" y="4167491.4059517574" >
		</node>
		<node id="1785935325" x="319535.93895348423" y="4167573.055924481" >
		</node>
		<node id="1785935337" x="319698.79752694495" y="4167479.1054647947" >
		</node>
		<node id="1785935378" x="320058.9012889302" y="4167397.863664024" >
		</node>
		<node id="1785935407" x="320188.37696725444" y="4167626.028443354" >
		</node>
		<node id="1785935424" x="320346.4368826321" y="4167291.6802911153" >
		</node>
		<node id="1785935461" x="319709.6699122705" y="4167213.473800919" >
		</node>
		<node id="1785935472" x="319940.0574108117" y="4167179.838128608" >
		</node>
		<node id="1785935477" x="320117.2519622375" y="4167246.9015787537" >
		</node>
		<node id="1785935487" x="320166.95405271836" y="4167770.7921763817" >
		</node>
		<node id="1785935489" x="320176.7866847292" y="4167916.5308215227" >
		</node>
		<node id="1785935490" x="320042.77091446554" y="4167919.866421238" >
		</node>
		<node id="1785935491" x="320243.37118827726" y="4167915.0839645476" >
		</node>
		<node id="1785935492" x="320106.64320236724" y="4167774.1791759324" >
		</node>
		<node id="1785935493" x="320223.5687427566" y="4167769.972674566" >
		</node>
		<node id="1785950939" x="319864.40269176324" y="4167122.202053805" >
		</node>
		<node id="1785950969" x="319519.44514593505" y="4168056.602589262" >
		</node>
		<node id="1785950970" x="319680.38119854964" y="4167985.4846702036" >
		</node>
		<node id="1785950992" x="319330.80259647395" y="4168099.0870706104" >
		</node>
		<node id="1785951017" x="319506.6111372055" y="4168307.5573349213" >
		</node>
		<node id="1878832922" x="316584.18878213735" y="4172388.989552211" >
		</node>
		<node id="1891739419" x="311790.25322552514" y="4167090.7639214764" >
		</node>
		<node id="1891739434" x="311889.43279144936" y="4166896.7627627696" >
		</node>
		<node id="1891739445" x="311794.7449833447" y="4167035.1284540626" >
		</node>
		<node id="1891764476" x="311052.62411175144" y="4168988.8783971593" >
		</node>
		<node id="1891786337" x="312351.7611297548" y="4170794.7353500403" >
		</node>
		<node id="1891786342" x="312484.7235400019" y="4170858.7534790915" >
		</node>
		<node id="1891786348" x="312495.8919955122" y="4170506.015280929" >
		</node>
		<node id="1891786383" x="312151.4138628623" y="4170766.900371959" >
		</node>
		<node id="1891786384" x="312100.3537448305" y="4170952.7137867" >
		</node>
		<node id="1891786398" x="311688.671905558" y="4169788.2810214194" >
		</node>
		<node id="1891786418" x="311832.2156173199" y="4169062.1781936656" >
		</node>
		<node id="1891800951" x="311099.8505069637" y="4169536.0767760873" >
		</node>
		<node id="1891800952" x="311183.7616174706" y="4169662.1591609786" >
		</node>
		<node id="1891800953" x="311298.29161072266" y="4169836.2604509266" >
		</node>
		<node id="1891800954" x="311434.0939365057" y="4170042.707462161" >
		</node>
		<node id="1891800955" x="311571.6862710836" y="4170250.914136639" >
		</node>
		<node id="1891800958" x="311621.63428664056" y="4170231.55708335" >
		</node>
		<node id="1891800963" x="311531.22793955426" y="4170587.803256039" >
		</node>
		<node id="1891800969" x="311400.6416423456" y="4170589.426878699" >
		</node>
		<node id="1891800970" x="311389.4295198167" y="4170164.4860471576" >
		</node>
		<node id="1891800974" x="311278.0846958766" y="4170590.9580809018" >
		</node>
		<node id="1891800975" x="311265.7597571276" y="4170168.1962834415" >
		</node>
		<node id="1891800979" x="311140.8624492007" y="4170171.4923185376" >
		</node>
		<node id="1891800980" x="311130.10963227553" y="4169793.470346682" >
		</node>
		<node id="1891800984" x="311028.5281247099" y="4170595.4375632824" >
		</node>
		<node id="1891800985" x="311016.667339397" y="4170176.5505679697" >
		</node>
		<node id="1891800986" x="311005.9705860569" y="4169798.5271266326" >
		</node>
		<node id="1891800993" x="311612.3265274202" y="4169918.3291529417" >
		</node>
		<node id="1891800994" x="311603.8509925475" y="4169633.482048757" >
		</node>
		<node id="1891800996" x="311594.1326170267" y="4169513.3768658433" >
		</node>
		<node id="1891801002" x="311456.9727162835" y="4169638.195104834" >
		</node>
		<node id="1891801006" x="311464.9185452416" y="4169912.362927196" >
		</node>
		<node id="1891999847" x="312612.69512197137" y="4170717.106967296" >
		</node>
		<node id="1892019895" x="313000.6119809593" y="4171579.7124689207" >
		</node>
		<node id="1892019896" x="313082.4174607965" y="4171578.1726908484" >
		</node>
		<node id="1892019897" x="313164.84572309593" y="4171575.6870586523" >
		</node>
		<node id="1892019898" x="313228.5539475512" y="4171574.2470203945" >
		</node>
		<node id="1892019913" x="312999.07362367696" y="4171523.4257648187" >
		</node>
		<node id="1892019916" x="313025.8480562166" y="4171425.131661447" >
		</node>
		<node id="1892019918" x="313090.5200868143" y="4171411.2343613342" >
		</node>
		<node id="1892019919" x="313173.63390643976" y="4171409.3329323796" >
		</node>
		<node id="1892019922" x="312963.10463499837" y="4171524.2397195282" >
		</node>
		<node id="1892019930" x="313325.75668778305" y="4171925.7776306127" >
		</node>
		<node id="1892019936" x="313573.96291527286" y="4171991.716623133" >
		</node>
		<node id="1892019937" x="313518.97040480387" y="4171857.988351356" >
		</node>
		<node id="1892019945" x="313352.5630599486" y="4171828.805111154" >
		</node>
		<node id="1892019946" x="313382.4354152486" y="4172191.4717531228" >
		</node>
		<node id="1892019949" x="313451.3797842598" y="4172127.476194427" >
		</node>
		<node id="1892019953" x="313484.6200417476" y="4172073.13557002" >
		</node>
		<node id="1892019957" x="313362.5462608993" y="4172061.7810959453" >
		</node>