<?xml version="1.0" encoding="UTF-8"?>
<networkChangeEvents xmlns="http://www.matsim.org/files/dtd" xmlns:xsi="http://www.w3.org/2001/XMLSchema-instance" xsi:schemaLocation="http://www.matsim.org/files/dtd http://www.matsim.org/files/dtd/networkChangeEvents.xsd">

	<networkChangeEvent startTime="06:00:35">
		<link refId="13131"/>
		<flowCapacity type="absolute" value="1497.0"/>
	</networkChangeEvent>

	<networkChangeEvent startTime="07:48:00">
		<link refId="13131"/>
		<flowCapacity type="absolute" value="7484.0"/>
	</networkChangeEvent>

	<networkChangeEvent startTime="06:59:12">
		<link refId="18779"/>
		<flowCapacity type="absolute" value="5987.0"/>
	</networkChangeEvent>

	<networkChangeEvent startTime="08:27:03">
		<link refId="18779"/>
		<flowCapacity type="absolute" value="7484.0"/>
	</networkChangeEvent>

	<networkChangeEvent startTime="08:03:57">
		<link refId="18804"/>
		<flowCapacity type="absolute" value="7047.0"/>
	</networkChangeEvent>

	<networkChangeEvent startTime="09:00:48">
		<link refId="18804"/>
		<flowCapacity type="absolute" value="8920.0"/>
	</networkChangeEvent>

	<networkChangeEvent startTime="09:03:33">
		<link refId="16613"/>
		<flowCapacity type="absolute" value="1325.0"/>
	</networkChangeEvent>

	<networkChangeEvent startTime="09:54:06">
		<link refId="16613"/>
		<flowCapacity type="absolute" value="1767.0"/>
	</networkChangeEvent>

	<networkChangeEvent startTime="09:08:23">
		<link refId="13416"/>
		<flowCapacity type="absolute" value="3742.0"/>
	</networkChangeEvent>

	<networkChangeEvent startTime="10:21:56">
		<link refId="13416"/>
		<flowCapacity type="absolute" value="7484.0"/>
	</networkChangeEvent>

	<networkChangeEvent startTime="09:14:42">
		<link refId="17632"/>
		<flowCapacity type="absolute" value="4152.0"/>
	</networkChangeEvent>

	<networkChangeEvent startTime="09:45:51">
		<link refId="17632"/>
		<flowCapacity type="absolute" value="5190.0"/>
	</networkChangeEvent>

	<networkChangeEvent startTime="12:59:15">
		<link refId="14513"/>
		<flowCapacity type="absolute" value="4490.0"/>
	</networkChangeEvent>

	<networkChangeEvent startTime="14:29:05">
		<link refId="14513"/>
		<flowCapacity type="absolute" value="7484.0"/>
	</networkChangeEvent>

	<networkChangeEvent startTime="13:28:48">
		<link refId="17496"/>
		<flowCapacity type="absolute" value="3893.0"/>
	</networkChangeEvent>

	<networkChangeEvent startTime="14:25:19">
		<link refId="17496"/>
		<flowCapacity type="absolute" value="5190.0"/>
	</networkChangeEvent>

	<networkChangeEvent startTime="14:20:42">
		<link refId="13073"/>
		<flowCapacity type="absolute" value="5427.0"/>
	</networkChangeEvent>

	<networkChangeEvent startTime="15:35:00">
		<link refId="13073"/>
		<flowCapacity type="absolute" value="6784.0"/>
	</networkChangeEvent>

	<networkChangeEvent startTime="14:24:06">
		<link refId="12956"/>
		<flowCapacity type="absolute" value="1048.0"/>
	</networkChangeEvent>

	<networkChangeEvent startTime="15:34:50">
		<link refId="12956"/>
		<flowCapacity type="absolute" value="7484.0"/>
	</networkChangeEvent>

	<networkChangeEvent startTime="15:23:34">
		<link refId="16560"/>
		<flowCapacity type="absolute" value="1396.0"/>
	</networkChangeEvent>

	<networkChangeEvent startTime="16:30:17">
		<link refId="16560"/>
		<flowCapacity type="absolute" value="1767.0"/>
	</networkChangeEvent>

	<networkChangeEvent startTime="15:42:48">
		<link refId="18234"/>
		<flowCapacity type="absolute" value="5507.0"/>
	</networkChangeEvent>

	<networkChangeEvent startTime="16:51:40">
		<link refId="18234"/>
		<flowCapacity type="absolute" value="8220.0"/>
	</networkChangeEvent>

	<networkChangeEvent startTime="16:16:14">
		<link refId="24751"/>
		<flowCapacity type="absolute" value="2595.0"/>
	</networkChangeEvent>

	<networkChangeEvent startTime="17:08:50">
		<link refId="24751"/>
		<flowCapacity type="absolute" value="5190.0"/>
	</networkChangeEvent>

	<networkChangeEvent startTime="16:18:37">
		<link refId="8342"/>
		<flowCapacity type="absolute" value="3314.0"/>
	</networkChangeEvent>

	<networkChangeEvent startTime="16:57:00">
		<link refId="8342"/>
		<flowCapacity type="absolute" value="4419.0"/>
	</networkChangeEvent>

	<networkChangeEvent startTime="16:25:01">
		<link refId="12931"/>
		<flowCapacity type="absolute" value="4490.0"/>
	</networkChangeEvent>

	<networkChangeEvent startTime="16:53:53">
		<link refId="12931"/>
		<flowCapacity type="absolute" value="7484.0"/>
	</networkChangeEvent>

	<networkChangeEvent startTime="16:30:19">
		<link refId="20832"/>
		<flowCapacity type="absolute" value="4070.0"/>
	</networkChangeEvent>

	<networkChangeEvent startTime="17:25:35">
		<link refId="20832"/>
		<flowCapacity type="absolute" value="6784.0"/>
	</networkChangeEvent>

	<networkChangeEvent startTime="16:48:31">
		<link refId="16652"/>
		<flowCapacity type="absolute" value="937.0"/>
	</networkChangeEvent>

	<networkChangeEvent startTime="17:41:01">
		<link refId="16652"/>
		<flowCapacity type="absolute" value="1767.0"/>
	</networkChangeEvent>

	<networkChangeEvent startTime="17:39:33">
		<link refId="16705"/>
		<flowCapacity type="absolute" value="884.0"/>
	</networkChangeEvent>

	<networkChangeEvent startTime="18:44:08">
		<link refId="16705"/>
		<flowCapacity type="absolute" value="1767.0"/>
	</networkChangeEvent>

</networkChangeEvents>
