<?xml version="1.0" encoding="UTF-8"?>
<networkChangeEvents xmlns="http://www.matsim.org/files/dtd" xmlns:xsi="http://www.w3.org/2001/XMLSchema-instance" xsi:schemaLocation="http://www.matsim.org/files/dtd http://www.matsim.org/files/dtd/networkChangeEvents.xsd">

	<networkChangeEvent startTime="07:54:37">
		<link refId="24911"/>
		<flowCapacity type="absolute" value="1730.0"/>
	</networkChangeEvent>

	<networkChangeEvent startTime="08:49:05">
		<link refId="13440"/>
		<flowCapacity type="absolute" value="4490.0"/>
	</networkChangeEvent>

	<networkChangeEvent startTime="08:24:28">
		<link refId="13508"/>
		<flowCapacity type="absolute" value="3948.0"/>
	</networkChangeEvent>

	<networkChangeEvent startTime="09:31:00">
		<link refId="24911"/>
		<flowCapacity type="absolute" value="5190.0"/>
	</networkChangeEvent>

	<networkChangeEvent startTime="09:16:58">
		<link refId="13508"/>
		<flowCapacity type="absolute" value="5892.0"/>
	</networkChangeEvent>

	<networkChangeEvent startTime="09:27:52">
		<link refId="13440"/>
		<flowCapacity type="absolute" value="7484.0"/>
	</networkChangeEvent>

	<networkChangeEvent startTime="10:50:49">
		<link refId="16567"/>
		<flowCapacity type="absolute" value="1467.0"/>
	</networkChangeEvent>

	<networkChangeEvent startTime="11:58:21">
		<link refId="16567"/>
		<flowCapacity type="absolute" value="1767.0"/>
	</networkChangeEvent>

	<networkChangeEvent startTime="14:33:01">
		<link refId="13467"/>
		<flowCapacity type="absolute" value="4697.0"/>
	</networkChangeEvent>

	<networkChangeEvent startTime="16:07:02">
		<link refId="13467"/>
		<flowCapacity type="absolute" value="8220.0"/>
	</networkChangeEvent>

	<networkChangeEvent startTime="15:07:43">
		<link refId="13425"/>
		<flowCapacity type="absolute" value="5239.0"/>
	</networkChangeEvent>

	<networkChangeEvent startTime="16:37:56">
		<link refId="13425"/>
		<flowCapacity type="absolute" value="7484.0"/>
	</networkChangeEvent>

	<networkChangeEvent startTime="15:18:06">
		<link refId="13208"/>
		<flowCapacity type="absolute" value="1730.0"/>
	</networkChangeEvent>

	<networkChangeEvent startTime="17:17:25">
		<link refId="13208"/>
		<flowCapacity type="absolute" value="5190.0"/>
	</networkChangeEvent>

	<networkChangeEvent startTime="15:41:53">
		<link refId="12899"/>
		<flowCapacity type="absolute" value="3218.0"/>
	</networkChangeEvent>

	<networkChangeEvent startTime="17:35:18">
		<link refId="12899"/>
		<flowCapacity type="absolute" value="7484.0"/>
	</networkChangeEvent>

	<networkChangeEvent startTime="16:31:08">
		<link refId="12931"/>
		<flowCapacity type="absolute" value="4989.0"/>
	</networkChangeEvent>

	<networkChangeEvent startTime="16:47:45">
		<link refId="12931"/>
		<flowCapacity type="absolute" value="7484.0"/>
	</networkChangeEvent>

	<networkChangeEvent startTime="17:27:04">
		<link refId="13018"/>
		<flowCapacity type="absolute" value="4419.0"/>
	</networkChangeEvent>

	<networkChangeEvent startTime="18:37:49">
		<link refId="13018"/>
		<flowCapacity type="absolute" value="5892.0"/>
	</networkChangeEvent>

	<networkChangeEvent startTime="18:01:14">
		<link refId="13490"/>
		<flowCapacity type="absolute" value="3742.0"/>
	</networkChangeEvent>

	<networkChangeEvent startTime="20:52:40">
		<link refId="13490"/>
		<flowCapacity type="absolute" value="7484.0"/>
	</networkChangeEvent>

	<networkChangeEvent startTime="18:28:15">
		<link refId="13504"/>
		<flowCapacity type="absolute" value="898.0"/>
	</networkChangeEvent>

	<networkChangeEvent startTime="18:59:34">
		<link refId="13504"/>
		<flowCapacity type="absolute" value="7484.0"/>
	</networkChangeEvent>

</networkChangeEvents>
