<?xml version="1.0" encoding="UTF-8"?>
<networkChangeEvents xmlns="http://www.matsim.org/files/dtd" xmlns:xsi="http://www.w3.org/2001/XMLSchema-instance" xsi:schemaLocation="http://www.matsim.org/files/dtd http://www.matsim.org/files/dtd/networkChangeEvents.xsd">

	<networkChangeEvent startTime="05:37:50">
		<link refId="12973"/>
		<flowCapacity type="absolute" value="2944.0"/>
	</networkChangeEvent>

	<networkChangeEvent startTime="06:51:36">
		<link refId="17894"/>
		<flowCapacity type="absolute" value="5976.0"/>
	</networkChangeEvent>

	<networkChangeEvent startTime="06:50:18">
		<link refId="19060"/>
		<flowCapacity type="absolute" value="5427.0"/>
	</networkChangeEvent>

	<networkChangeEvent startTime="07:40:15">
		<link refId="19060"/>
		<flowCapacity type="absolute" value="6784.0"/>
	</networkChangeEvent>

	<networkChangeEvent startTime="07:09:00">
		<link refId="12973"/>
		<flowCapacity type="absolute" value="8920.0"/>
	</networkChangeEvent>

	<networkChangeEvent startTime="07:59:26">
		<link refId="18310"/>
		<flowCapacity type="absolute" value="6850.0"/>
	</networkChangeEvent>

	<networkChangeEvent startTime="07:17:11">
		<link refId="13143"/>
		<flowCapacity type="absolute" value="4989.0"/>
	</networkChangeEvent>

	<networkChangeEvent startTime="08:36:28">
		<link refId="13467"/>
		<flowCapacity type="absolute" value="6576.0"/>
	</networkChangeEvent>

	<networkChangeEvent startTime="07:43:29">
		<link refId="17130"/>
		<flowCapacity type="absolute" value="4138.0"/>
	</networkChangeEvent>

	<networkChangeEvent startTime="08:23:36">
		<link refId="17130"/>
		<flowCapacity type="absolute" value="6784.0"/>
	</networkChangeEvent>

	<networkChangeEvent startTime="07:59:18">
		<link refId="19698"/>
		<flowCapacity type="absolute" value="4070.0"/>
	</networkChangeEvent>

	<networkChangeEvent startTime="09:07:51">
		<link refId="19698"/>
		<flowCapacity type="absolute" value="6784.0"/>
	</networkChangeEvent>

	<networkChangeEvent startTime="08:02:20">
		<link refId="17894"/>
		<flowCapacity type="absolute" value="8920.0"/>
	</networkChangeEvent>

	<networkChangeEvent startTime="08:54:00">
		<link refId="18310"/>
		<flowCapacity type="absolute" value="8220.0"/>
	</networkChangeEvent>

	<networkChangeEvent startTime="08:33:44">
		<link refId="19733"/>
		<flowCapacity type="absolute" value="2261.0"/>
	</networkChangeEvent>

	<networkChangeEvent startTime="09:42:08">
		<link refId="19733"/>
		<flowCapacity type="absolute" value="6784.0"/>
	</networkChangeEvent>

	<networkChangeEvent startTime="08:52:23">
		<link refId="13143"/>
		<flowCapacity type="absolute" value="7484.0"/>
	</networkChangeEvent>

	<networkChangeEvent startTime="09:52:27">
		<link refId="13467"/>
		<flowCapacity type="absolute" value="8220.0"/>
	</networkChangeEvent>

	<networkChangeEvent startTime="08:48:41">
		<link refId="16583"/>
		<flowCapacity type="absolute" value="884.0"/>
	</networkChangeEvent>

	<networkChangeEvent startTime="09:22:55">
		<link refId="16583"/>
		<flowCapacity type="absolute" value="1767.0"/>
	</networkChangeEvent>

	<networkChangeEvent startTime="09:48:18">
		<link refId="16613"/>
		<flowCapacity type="absolute" value="1472.0"/>
	</networkChangeEvent>

	<networkChangeEvent startTime="10:24:31">
		<link refId="16613"/>
		<flowCapacity type="absolute" value="1767.0"/>
	</networkChangeEvent>

	<networkChangeEvent startTime="12:50:36">
		<link refId="14512"/>
		<flowCapacity type="absolute" value="6436.0"/>
	</networkChangeEvent>

	<networkChangeEvent startTime="15:07:07">
		<link refId="14512"/>
		<flowCapacity type="absolute" value="7484.0"/>
	</networkChangeEvent>

	<networkChangeEvent startTime="15:07:43">
		<link refId="13425"/>
		<flowCapacity type="absolute" value="5239.0"/>
	</networkChangeEvent>

	<networkChangeEvent startTime="16:37:56">
		<link refId="13425"/>
		<flowCapacity type="absolute" value="7484.0"/>
	</networkChangeEvent>

	<networkChangeEvent startTime="15:29:22">
		<link refId="13016"/>
		<flowCapacity type="absolute" value="4419.0"/>
	</networkChangeEvent>

	<networkChangeEvent startTime="16:44:00">
		<link refId="13016"/>
		<flowCapacity type="absolute" value="5892.0"/>
	</networkChangeEvent>

	<networkChangeEvent startTime="15:29:29">
		<link refId="13461"/>
		<flowCapacity type="absolute" value="7136.0"/>
	</networkChangeEvent>

	<networkChangeEvent startTime="15:58:20">
		<link refId="13461"/>
		<flowCapacity type="absolute" value="8920.0"/>
	</networkChangeEvent>

	<networkChangeEvent startTime="16:24:36">
		<link refId="13073"/>
		<flowCapacity type="absolute" value="2261.0"/>
	</networkChangeEvent>

	<networkChangeEvent startTime="17:29:33">
		<link refId="13073"/>
		<flowCapacity type="absolute" value="6784.0"/>
	</networkChangeEvent>

	<networkChangeEvent startTime="16:45:28">
		<link refId="12919"/>
		<flowCapacity type="absolute" value="3742.0"/>
	</networkChangeEvent>

	<networkChangeEvent startTime="16:58:08">
		<link refId="12919"/>
		<flowCapacity type="absolute" value="7484.0"/>
	</networkChangeEvent>

	<networkChangeEvent startTime="18:04:36">
		<link refId="12982"/>
		<flowCapacity type="absolute" value="4697.0"/>
	</networkChangeEvent>

	<networkChangeEvent startTime="18:50:37">
		<link refId="12982"/>
		<flowCapacity type="absolute" value="8220.0"/>
	</networkChangeEvent>

</networkChangeEvents>
