<?xml version="1.0" encoding="UTF-8"?>
<networkChangeEvents xmlns="http://www.matsim.org/files/dtd" xmlns:xsi="http://www.w3.org/2001/XMLSchema-instance" xsi:schemaLocation="http://www.matsim.org/files/dtd http://www.matsim.org/files/dtd/networkChangeEvents.xsd">

	<networkChangeEvent startTime="08:25:44">
		<link refId="16752"/>
		<flowCapacity type="absolute" value="1325.0"/>
	</networkChangeEvent>

	<networkChangeEvent startTime="09:24:48">
		<link refId="13244"/>
		<flowCapacity type="absolute" value="6237.0"/>
	</networkChangeEvent>

	<networkChangeEvent startTime="09:23:54">
		<link refId="18249"/>
		<flowCapacity type="absolute" value="6001.0"/>
	</networkChangeEvent>

	<networkChangeEvent startTime="10:08:11">
		<link refId="18249"/>
		<flowCapacity type="absolute" value="8220.0"/>
	</networkChangeEvent>

	<networkChangeEvent startTime="10:01:37">
		<link refId="16752"/>
		<flowCapacity type="absolute" value="1767.0"/>
	</networkChangeEvent>

	<networkChangeEvent startTime="10:08:16">
		<link refId="13244"/>
		<flowCapacity type="absolute" value="7484.0"/>
	</networkChangeEvent>

	<networkChangeEvent startTime="11:01:25">
		<link refId="12796"/>
		<flowCapacity type="absolute" value="3893.0"/>
	</networkChangeEvent>

	<networkChangeEvent startTime="12:07:54">
		<link refId="12796"/>
		<flowCapacity type="absolute" value="5190.0"/>
	</networkChangeEvent>

	<networkChangeEvent startTime="12:59:15">
		<link refId="14513"/>
		<flowCapacity type="absolute" value="4490.0"/>
	</networkChangeEvent>

	<networkChangeEvent startTime="14:29:05">
		<link refId="14513"/>
		<flowCapacity type="absolute" value="7484.0"/>
	</networkChangeEvent>

	<networkChangeEvent startTime="13:59:07">
		<link refId="8944"/>
		<flowCapacity type="absolute" value="1010.0"/>
	</networkChangeEvent>

	<networkChangeEvent startTime="15:15:19">
		<link refId="8944"/>
		<flowCapacity type="absolute" value="1767.0"/>
	</networkChangeEvent>

	<networkChangeEvent startTime="14:19:30">
		<link refId="20770"/>
		<flowCapacity type="absolute" value="6083.0"/>
	</networkChangeEvent>

	<networkChangeEvent startTime="15:30:15">
		<link refId="20770"/>
		<flowCapacity type="absolute" value="8220.0"/>
	</networkChangeEvent>

	<networkChangeEvent startTime="14:57:42">
		<link refId="18234"/>
		<flowCapacity type="absolute" value="5480.0"/>
	</networkChangeEvent>

	<networkChangeEvent startTime="15:56:07">
		<link refId="18234"/>
		<flowCapacity type="absolute" value="8220.0"/>
	</networkChangeEvent>

	<networkChangeEvent startTime="15:01:06">
		<link refId="12956"/>
		<flowCapacity type="absolute" value="6415.0"/>
	</networkChangeEvent>

	<networkChangeEvent startTime="16:05:41">
		<link refId="12956"/>
		<flowCapacity type="absolute" value="7484.0"/>
	</networkChangeEvent>

	<networkChangeEvent startTime="15:13:32">
		<link refId="12926"/>
		<flowCapacity type="absolute" value="6137.0"/>
	</networkChangeEvent>

	<networkChangeEvent startTime="16:28:13">
		<link refId="12926"/>
		<flowCapacity type="absolute" value="7484.0"/>
	</networkChangeEvent>

	<networkChangeEvent startTime="16:16:18">
		<link refId="13187"/>
		<flowCapacity type="absolute" value="2495.0"/>
	</networkChangeEvent>

	<networkChangeEvent startTime="16:49:00">
		<link refId="13187"/>
		<flowCapacity type="absolute" value="7484.0"/>
	</networkChangeEvent>

</networkChangeEvents>
