<?xml version="1.0" encoding="UTF-8"?>
<networkChangeEvents xmlns="http://www.matsim.org/files/dtd" xmlns:xsi="http://www.w3.org/2001/XMLSchema-instance" xsi:schemaLocation="http://www.matsim.org/files/dtd http://www.matsim.org/files/dtd/networkChangeEvents.xsd">

	<networkChangeEvent startTime="06:39:40">
		<link refId="13208"/>
		<flowCapacity type="absolute" value="3460.0"/>
	</networkChangeEvent>

	<networkChangeEvent startTime="07:45:57">
		<link refId="13208"/>
		<flowCapacity type="absolute" value="5190.0"/>
	</networkChangeEvent>

	<networkChangeEvent startTime="07:24:41">
		<link refId="13467"/>
		<flowCapacity type="absolute" value="6658.0"/>
	</networkChangeEvent>

	<networkChangeEvent startTime="08:40:14">
		<link refId="12907"/>
		<flowCapacity type="absolute" value="4989.0"/>
	</networkChangeEvent>

	<networkChangeEvent startTime="08:09:48">
		<link refId="13460"/>
		<flowCapacity type="absolute" value="7646.0"/>
	</networkChangeEvent>

	<networkChangeEvent startTime="08:39:29">
		<link refId="13460"/>
		<flowCapacity type="absolute" value="8920.0"/>
	</networkChangeEvent>

	<networkChangeEvent startTime="08:32:33">
		<link refId="25182"/>
		<flowCapacity type="absolute" value="6576.0"/>
	</networkChangeEvent>

	<networkChangeEvent startTime="09:09:23">
		<link refId="25182"/>
		<flowCapacity type="absolute" value="8220.0"/>
	</networkChangeEvent>

	<networkChangeEvent startTime="08:59:15">
		<link refId="13467"/>
		<flowCapacity type="absolute" value="8220.0"/>
	</networkChangeEvent>

	<networkChangeEvent startTime="10:10:03">
		<link refId="12907"/>
		<flowCapacity type="absolute" value="7484.0"/>
	</networkChangeEvent>

	<networkChangeEvent startTime="09:48:18">
		<link refId="16613"/>
		<flowCapacity type="absolute" value="1472.0"/>
	</networkChangeEvent>

	<networkChangeEvent startTime="10:24:31">
		<link refId="16613"/>
		<flowCapacity type="absolute" value="1767.0"/>
	</networkChangeEvent>

	<networkChangeEvent startTime="14:02:42">
		<link refId="13073"/>
		<flowCapacity type="absolute" value="4545.0"/>
	</networkChangeEvent>

	<networkChangeEvent startTime="15:00:03">
		<link refId="13073"/>
		<flowCapacity type="absolute" value="6784.0"/>
	</networkChangeEvent>

	<networkChangeEvent startTime="14:18:57">
		<link refId="18234"/>
		<flowCapacity type="absolute" value="4110.0"/>
	</networkChangeEvent>

	<networkChangeEvent startTime="15:26:00">
		<link refId="18234"/>
		<flowCapacity type="absolute" value="8220.0"/>
	</networkChangeEvent>

	<networkChangeEvent startTime="14:37:35">
		<link refId="20454"/>
		<flowCapacity type="absolute" value="3907.0"/>
	</networkChangeEvent>

	<networkChangeEvent startTime="18:04:36">
		<link refId="12982"/>
		<flowCapacity type="absolute" value="4697.0"/>
	</networkChangeEvent>

	<networkChangeEvent startTime="15:54:03">
		<link refId="11474"/>
		<flowCapacity type="absolute" value="3742.0"/>
	</networkChangeEvent>

	<networkChangeEvent startTime="16:22:30">
		<link refId="11474"/>
		<flowCapacity type="absolute" value="7484.0"/>
	</networkChangeEvent>

	<networkChangeEvent startTime="16:16:14">
		<link refId="24751"/>
		<flowCapacity type="absolute" value="2595.0"/>
	</networkChangeEvent>

	<networkChangeEvent startTime="17:08:50">
		<link refId="24751"/>
		<flowCapacity type="absolute" value="5190.0"/>
	</networkChangeEvent>

	<networkChangeEvent startTime="16:27:17">
		<link refId="13413"/>
		<flowCapacity type="absolute" value="4490.0"/>
	</networkChangeEvent>

	<networkChangeEvent startTime="17:22:20">
		<link refId="13413"/>
		<flowCapacity type="absolute" value="7484.0"/>
	</networkChangeEvent>

	<networkChangeEvent startTime="16:31:08">
		<link refId="12931"/>
		<flowCapacity type="absolute" value="4989.0"/>
	</networkChangeEvent>

	<networkChangeEvent startTime="16:47:45">
		<link refId="12931"/>
		<flowCapacity type="absolute" value="7484.0"/>
	</networkChangeEvent>

	<networkChangeEvent startTime="16:35:25">
		<link refId="13394"/>
		<flowCapacity type="absolute" value="5987.0"/>
	</networkChangeEvent>

	<networkChangeEvent startTime="17:36:13">
		<link refId="13394"/>
		<flowCapacity type="absolute" value="7484.0"/>
	</networkChangeEvent>

	<networkChangeEvent startTime="16:59:48">
		<link refId="18356"/>
		<flowCapacity type="absolute" value="6576.0"/>
	</networkChangeEvent>

	<networkChangeEvent startTime="18:08:44">
		<link refId="18356"/>
		<flowCapacity type="absolute" value="8220.0"/>
	</networkChangeEvent>

	<networkChangeEvent startTime="17:21:48">
		<link refId="16583"/>
		<flowCapacity type="absolute" value="1325.0"/>
	</networkChangeEvent>

	<networkChangeEvent startTime="18:15:24">
		<link refId="16583"/>
		<flowCapacity type="absolute" value="1767.0"/>
	</networkChangeEvent>

	<networkChangeEvent startTime="17:52:16">
		<link refId="13390"/>
		<flowCapacity type="absolute" value="1661.0"/>
	</networkChangeEvent>

	<networkChangeEvent startTime="20:02:00">
		<link refId="13390"/>
		<flowCapacity type="absolute" value="5190.0"/>
	</networkChangeEvent>

	<networkChangeEvent startTime="17:54:34">
		<link refId="19698"/>
		<flowCapacity type="absolute" value="5088.0"/>
	</networkChangeEvent>

	<networkChangeEvent startTime="19:00:40">
		<link refId="19698"/>
		<flowCapacity type="absolute" value="6784.0"/>
	</networkChangeEvent>

	<networkChangeEvent startTime="18:09:52">
		<link refId="20454"/>
		<flowCapacity type="absolute" value="5831.0"/>
	</networkChangeEvent>

	<networkChangeEvent startTime="18:50:37">
		<link refId="12982"/>
		<flowCapacity type="absolute" value="8220.0"/>
	</networkChangeEvent>

	<networkChangeEvent startTime="18:24:28">
		<link refId="14513"/>
		<flowCapacity type="absolute" value="4989.0"/>
	</networkChangeEvent>

	<networkChangeEvent startTime="19:28:38">
		<link refId="14513"/>
		<flowCapacity type="absolute" value="7484.0"/>
	</networkChangeEvent>

	<networkChangeEvent startTime="18:33:50">
		<link refId="12941"/>
		<flowCapacity type="absolute" value="5987.0"/>
	</networkChangeEvent>

	<networkChangeEvent startTime="20:23:12">
		<link refId="12941"/>
		<flowCapacity type="absolute" value="7484.0"/>
	</networkChangeEvent>

</networkChangeEvents>
