<?xml version="1.0" encoding="UTF-8" standalone="no"?>
<networkChangeEvents xmlns:xsi="http://www.w3.org/2001/XMLSchema-instance" xsi:schemaLocation="http://www.matsim.org/files/dtd http://www.matsim.org/files/dtd/networkChangeEvents.xsd" xmlns="http://www.matsim.org/files/dtd">
    
    <networkChangeEvent startTime="01:24:31">
        <link refId="35812"/>
        <flowCapacity type="absolute" value="-7397.999999999997"/>
    </networkChangeEvent>
    
    <networkChangeEvent startTime="04:41:20">
        <link refId="35812"/>
        <flowCapacity type="absolute" value="41100.0"/>
    </networkChangeEvent>
    
    <networkChangeEvent startTime="05:41:27">
        <link refId="36933"/>
        <flowCapacity type="absolute" value="0.0"/>
    </networkChangeEvent>
    
    <networkChangeEvent startTime="09:29:03">
        <link refId="36933"/>
        <flowCapacity type="absolute" value="5892.0"/>
    </networkChangeEvent>
    
    <networkChangeEvent startTime="06:50:18">
        <link refId="35042"/>
        <flowCapacity type="absolute" value="21708.800000000003"/>
    </networkChangeEvent>
    
    <networkChangeEvent startTime="07:40:15">
        <link refId="35042"/>
        <flowCapacity type="absolute" value="27136.0"/>
    </networkChangeEvent>
    
    <networkChangeEvent startTime="07:24:41">
        <link refId="30649"/>
        <flowCapacity type="absolute" value="1431.27"/>
    </networkChangeEvent>
    
    <networkChangeEvent startTime="08:59:15">
        <link refId="30649"/>
        <flowCapacity type="absolute" value="1767.0"/>
    </networkChangeEvent>
    
    <networkChangeEvent startTime="07:27:56">
        <link refId="24567"/>
        <flowCapacity type="absolute" value="23948.800000000003"/>
    </networkChangeEvent>
    
    <networkChangeEvent startTime="08:00:00">
        <link refId="24567"/>
        <flowCapacity type="absolute" value="29936.0"/>
    </networkChangeEvent>
    
    <networkChangeEvent startTime="07:29:18">
        <link refId="33522"/>
        <flowCapacity type="absolute" value="34113.0"/>
    </networkChangeEvent>
    
    <networkChangeEvent startTime="08:24:53">
        <link refId="33522"/>
        <flowCapacity type="absolute" value="41100.0"/>
    </networkChangeEvent>
    
    <networkChangeEvent startTime="07:31:06">
        <link refId="24632"/>
        <flowCapacity type="absolute" value="10431.9"/>
    </networkChangeEvent>
    
    <networkChangeEvent startTime="09:06:07">
        <link refId="24632"/>
        <flowCapacity type="absolute" value="15570.0"/>
    </networkChangeEvent>
    
    <networkChangeEvent startTime="07:33:49">
        <link refId="30685"/>
        <flowCapacity type="absolute" value="883.5"/>
    </networkChangeEvent>
    
    <networkChangeEvent startTime="08:33:39">
        <link refId="30685"/>
        <flowCapacity type="absolute" value="1767.0"/>
    </networkChangeEvent>
    
    <networkChangeEvent startTime="07:43:29">
        <link refId="31392"/>
        <flowCapacity type="absolute" value="16552.96"/>
    </networkChangeEvent>
    
    <networkChangeEvent startTime="08:23:36">
        <link refId="31392"/>
        <flowCapacity type="absolute" value="27136.0"/>
    </networkChangeEvent>
    
    <networkChangeEvent startTime="07:45:46">
        <link refId="24984"/>
        <flowCapacity type="absolute" value="23948.800000000003"/>
    </networkChangeEvent>
    
    <networkChangeEvent startTime="09:08:56">
        <link refId="24984"/>
        <flowCapacity type="absolute" value="29936.0"/>
    </networkChangeEvent>
    
    <networkChangeEvent startTime="07:54:36">
        <link refId="24423"/>
        <flowCapacity type="absolute" value="31666.0"/>
    </networkChangeEvent>
    
    <networkChangeEvent startTime="08:37:29">
        <link refId="24423"/>
        <flowCapacity type="absolute" value="44600.0"/>
    </networkChangeEvent>
    
    <networkChangeEvent startTime="07:54:48">
        <link refId="32358"/>
        <flowCapacity type="absolute" value="11521.8"/>
    </networkChangeEvent>
    
    <networkChangeEvent startTime="08:37:47">
        <link refId="32358"/>
        <flowCapacity type="absolute" value="15570.0"/>
    </networkChangeEvent>
    
    <networkChangeEvent startTime="07:59:07">
        <link refId="46870"/>
        <flowCapacity type="absolute" value="34113.0"/>
    </networkChangeEvent>
    
    <networkChangeEvent startTime="08:33:00">
        <link refId="46870"/>
        <flowCapacity type="absolute" value="41100.0"/>
    </networkChangeEvent>
    
    <networkChangeEvent startTime="08:01:14">
        <link refId="24610"/>
        <flowCapacity type="absolute" value="0.0"/>
    </networkChangeEvent>
    
    <networkChangeEvent startTime="10:09:51">
        <link refId="24610"/>
        <flowCapacity type="absolute" value="17676.0"/>
    </networkChangeEvent>
    
    <networkChangeEvent startTime="08:03:57">
        <link refId="34552"/>
        <flowCapacity type="absolute" value="35234.0"/>
    </networkChangeEvent>
    
    <networkChangeEvent startTime="09:00:48">
        <link refId="34552"/>
        <flowCapacity type="absolute" value="44600.0"/>
    </networkChangeEvent>
    
    <networkChangeEvent startTime="08:06:15">
        <link refId="24517"/>
        <flowCapacity type="absolute" value="19266.559999999998"/>
    </networkChangeEvent>
    
    <networkChangeEvent startTime="09:38:23">
        <link refId="24517"/>
        <flowCapacity type="absolute" value="27136.0"/>
    </networkChangeEvent>
    
    <networkChangeEvent startTime="08:25:44">
        <link refId="30859"/>
        <flowCapacity type="absolute" value="1325.25"/>
    </networkChangeEvent>
    
    <networkChangeEvent startTime="10:01:37">
        <link refId="30859"/>
        <flowCapacity type="absolute" value="1767.0"/>
    </networkChangeEvent>
    
    <networkChangeEvent startTime="08:32:33">
        <link refId="46795"/>
        <flowCapacity type="absolute" value="32880.0"/>
    </networkChangeEvent>
    
    <networkChangeEvent startTime="09:09:23">
        <link refId="46795"/>
        <flowCapacity type="absolute" value="41100.0"/>
    </networkChangeEvent>
    
    <networkChangeEvent startTime="08:44:13">
        <link refId="30757"/>
        <flowCapacity type="absolute" value="1166.2199999999998"/>
    </networkChangeEvent>
    
    <networkChangeEvent startTime="09:14:42">
        <link refId="30757"/>
        <flowCapacity type="absolute" value="1767.0"/>
    </networkChangeEvent>
    
    <networkChangeEvent startTime="08:46:00">
        <link refId="31103"/>
        <flowCapacity type="absolute" value="441.75"/>
    </networkChangeEvent>
    
    <networkChangeEvent startTime="09:14:51">
        <link refId="31103"/>
        <flowCapacity type="absolute" value="1767.0"/>
    </networkChangeEvent>
    
    <networkChangeEvent startTime="08:56:27">
        <link refId="24870"/>
        <flowCapacity type="absolute" value="11677.5"/>
    </networkChangeEvent>
    
    <networkChangeEvent startTime="10:04:13">
        <link refId="24870"/>
        <flowCapacity type="absolute" value="15570.0"/>
    </networkChangeEvent>
    
    <networkChangeEvent startTime="09:02:50">
        <link refId="24699"/>
        <flowCapacity type="absolute" value="7940.7"/>
    </networkChangeEvent>
    
    <networkChangeEvent startTime="10:00:57">
        <link refId="24699"/>
        <flowCapacity type="absolute" value="15570.0"/>
    </networkChangeEvent>
    
    <networkChangeEvent startTime="09:13:30">
        <link refId="24400"/>
        <flowCapacity type="absolute" value="21553.92"/>
    </networkChangeEvent>
    
    <networkChangeEvent startTime="09:26:44">
        <link refId="24400"/>
        <flowCapacity type="absolute" value="29936.0"/>
    </networkChangeEvent>
    
    <networkChangeEvent startTime="09:14:42">
        <link refId="32341"/>
        <flowCapacity type="absolute" value="12456.0"/>
    </networkChangeEvent>
    
    <networkChangeEvent startTime="09:45:51">
        <link refId="32341"/>
        <flowCapacity type="absolute" value="15570.0"/>
    </networkChangeEvent>
    
    <networkChangeEvent startTime="09:20:53">
        <link refId="24941"/>
        <flowCapacity type="absolute" value="29881.999999999996"/>
    </networkChangeEvent>
    
    <networkChangeEvent startTime="10:33:54">
        <link refId="24941"/>
        <flowCapacity type="absolute" value="44600.0"/>
    </networkChangeEvent>
    
    <networkChangeEvent startTime="09:27:01">
        <link refId="30658"/>
        <flowCapacity type="absolute" value="1466.61"/>
    </networkChangeEvent>
    
    <networkChangeEvent startTime="10:31:27">
        <link refId="30658"/>
        <flowCapacity type="absolute" value="1767.0"/>
    </networkChangeEvent>
    
    <networkChangeEvent startTime="10:10:38">
        <link refId="24969"/>
        <flowCapacity type="absolute" value="22452.0"/>
    </networkChangeEvent>
    
    <networkChangeEvent startTime="10:59:54">
        <link refId="24969"/>
        <flowCapacity type="absolute" value="29936.0"/>
    </networkChangeEvent>
    
    <networkChangeEvent startTime="10:54:18">
        <link refId="31094"/>
        <flowCapacity type="absolute" value="353.3999999999999"/>
    </networkChangeEvent>
    
    <networkChangeEvent startTime="13:58:31">
        <link refId="31094"/>
        <flowCapacity type="absolute" value="1767.0"/>
    </networkChangeEvent>
    
    <networkChangeEvent startTime="11:01:25">
        <link refId="24277"/>
        <flowCapacity type="absolute" value="11677.5"/>
    </networkChangeEvent>
    
    <networkChangeEvent startTime="12:07:54">
        <link refId="24277"/>
        <flowCapacity type="absolute" value="15570.0"/>
    </networkChangeEvent>
    
    <networkChangeEvent startTime="11:13:41">
        <link refId="30678"/>
        <flowCapacity type="absolute" value="1166.2199999999998"/>
    </networkChangeEvent>
    
    <networkChangeEvent startTime="12:49:45">
        <link refId="30678"/>
        <flowCapacity type="absolute" value="1767.0"/>
    </networkChangeEvent>
    
    <networkChangeEvent startTime="11:39:07">
        <link refId="30810"/>
        <flowCapacity type="absolute" value="1325.25"/>
    </networkChangeEvent>
    
    <networkChangeEvent startTime="12:35:01">
        <link refId="30810"/>
        <flowCapacity type="absolute" value="1767.0"/>
    </networkChangeEvent>
    
    <networkChangeEvent startTime="11:41:15">
        <link refId="24895"/>
        <flowCapacity type="absolute" value="18560.32"/>
    </networkChangeEvent>
    
    <networkChangeEvent startTime="12:24:00">
        <link refId="24895"/>
        <flowCapacity type="absolute" value="29936.0"/>
    </networkChangeEvent>
    
    <networkChangeEvent startTime="11:42:54">
        <link refId="30662"/>
        <flowCapacity type="absolute" value="1466.61"/>
    </networkChangeEvent>
    
    <networkChangeEvent startTime="12:39:25">
        <link refId="30662"/>
        <flowCapacity type="absolute" value="1767.0"/>
    </networkChangeEvent>
    
    <networkChangeEvent startTime="12:22:15">
        <link refId="37297"/>
        <flowCapacity type="absolute" value="13390.199999999999"/>
    </networkChangeEvent>
    
    <networkChangeEvent startTime="13:18:12">
        <link refId="37297"/>
        <flowCapacity type="absolute" value="15570.0"/>
    </networkChangeEvent>
    
    <networkChangeEvent startTime="12:23:05">
        <link refId="30743"/>
        <flowCapacity type="absolute" value="1130.88"/>
    </networkChangeEvent>
    
    <networkChangeEvent startTime="13:59:00">
        <link refId="30743"/>
        <flowCapacity type="absolute" value="1767.0"/>
    </networkChangeEvent>
    
    <networkChangeEvent startTime="12:56:50">
        <link refId="24404"/>
        <flowCapacity type="absolute" value="17961.6"/>
    </networkChangeEvent>
    
    <networkChangeEvent startTime="14:35:55">
        <link refId="24404"/>
        <flowCapacity type="absolute" value="29936.0"/>
    </networkChangeEvent>
    
    <networkChangeEvent startTime="12:58:48">
        <link refId="30666"/>
        <flowCapacity type="absolute" value="1254.57"/>
    </networkChangeEvent>
    
    <networkChangeEvent startTime="14:07:10">
        <link refId="30666"/>
        <flowCapacity type="absolute" value="1767.0"/>
    </networkChangeEvent>
    
    <networkChangeEvent startTime="13:24:37">
        <link refId="24399"/>
        <flowCapacity type="absolute" value="23948.800000000003"/>
    </networkChangeEvent>
    
    <networkChangeEvent startTime="14:15:10">
        <link refId="24399"/>
        <flowCapacity type="absolute" value="29936.0"/>
    </networkChangeEvent>
    
    <networkChangeEvent startTime="13:28:48">
        <link refId="30762"/>
        <flowCapacity type="absolute" value="1325.25"/>
    </networkChangeEvent>
    
    <networkChangeEvent startTime="14:25:19">
        <link refId="30762"/>
        <flowCapacity type="absolute" value="1767.0"/>
    </networkChangeEvent>
    
    <networkChangeEvent startTime="13:36:43">
        <link refId="31036"/>
        <flowCapacity type="absolute" value="1466.61"/>
    </networkChangeEvent>
    
    <networkChangeEvent startTime="14:10:53">
        <link refId="31036"/>
        <flowCapacity type="absolute" value="1767.0"/>
    </networkChangeEvent>
    
    <networkChangeEvent startTime="13:41:14">
        <link refId="24396"/>
        <flowCapacity type="absolute" value="23948.800000000003"/>
    </networkChangeEvent>
    
    <networkChangeEvent startTime="14:01:01">
        <link refId="24396"/>
        <flowCapacity type="absolute" value="29936.0"/>
    </networkChangeEvent>
    
    <networkChangeEvent startTime="13:54:11">
        <link refId="24898"/>
        <flowCapacity type="absolute" value="23948.800000000003"/>
    </networkChangeEvent>
    
    <networkChangeEvent startTime="14:43:01">
        <link refId="24898"/>
        <flowCapacity type="absolute" value="29936.0"/>
    </networkChangeEvent>
    
    <networkChangeEvent startTime="14:17:15">
        <link refId="36923"/>
        <flowCapacity type="absolute" value="21708.800000000003"/>
    </networkChangeEvent>
    
    <networkChangeEvent startTime="15:09:49">
        <link refId="36923"/>
        <flowCapacity type="absolute" value="27136.0"/>
    </networkChangeEvent>
    
    <networkChangeEvent startTime="14:19:30">
        <link refId="46796"/>
        <flowCapacity type="absolute" value="1307.58"/>
    </networkChangeEvent>
    
    <networkChangeEvent startTime="15:30:15">
        <link refId="46796"/>
        <flowCapacity type="absolute" value="1767.0"/>
    </networkChangeEvent>
    
    <networkChangeEvent startTime="14:20:42">
        <link refId="24523"/>
        <flowCapacity type="absolute" value="21708.800000000003"/>
    </networkChangeEvent>
    
    <networkChangeEvent startTime="15:35:00">
        <link refId="24523"/>
        <flowCapacity type="absolute" value="27136.0"/>
    </networkChangeEvent>
    
    <networkChangeEvent startTime="14:24:06">
        <link refId="31151"/>
        <flowCapacity type="absolute" value="247.38000000000002"/>
    </networkChangeEvent>
    
    <networkChangeEvent startTime="15:34:50">
        <link refId="31151"/>
        <flowCapacity type="absolute" value="1767.0"/>
    </networkChangeEvent>
    
    <networkChangeEvent startTime="14:32:03">
        <link refId="24381"/>
        <flowCapacity type="absolute" value="22452.0"/>
    </networkChangeEvent>
    
    <networkChangeEvent startTime="15:04:16">
        <link refId="24381"/>
        <flowCapacity type="absolute" value="29936.0"/>
    </networkChangeEvent>
    
    <networkChangeEvent startTime="14:32:33">
        <link refId="30689"/>
        <flowCapacity type="absolute" value="1325.25"/>
    </networkChangeEvent>
    
    <networkChangeEvent startTime="15:36:00">
        <link refId="30689"/>
        <flowCapacity type="absolute" value="1767.0"/>
    </networkChangeEvent>
    
    <networkChangeEvent startTime="14:33:27">
        <link refId="30673"/>
        <flowCapacity type="absolute" value="1466.61"/>
    </networkChangeEvent>
    
    <networkChangeEvent startTime="15:46:20">
        <link refId="30673"/>
        <flowCapacity type="absolute" value="1767.0"/>
    </networkChangeEvent>
    
    <networkChangeEvent startTime="14:47:49">
        <link refId="30761"/>
        <flowCapacity type="absolute" value="1201.56"/>
    </networkChangeEvent>
    
    <networkChangeEvent startTime="15:46:52">
        <link refId="30761"/>
        <flowCapacity type="absolute" value="1767.0"/>
    </networkChangeEvent>
    
    <networkChangeEvent startTime="15:12:48">
        <link refId="24670"/>
        <flowCapacity type="absolute" value="20057.12"/>
    </networkChangeEvent>
    
    <networkChangeEvent startTime="16:31:54">
        <link refId="24670"/>
        <flowCapacity type="absolute" value="29936.0"/>
    </networkChangeEvent>
    
    <networkChangeEvent startTime="15:13:08">
        <link refId="30751"/>
        <flowCapacity type="absolute" value="1130.88"/>
    </networkChangeEvent>
    
    <networkChangeEvent startTime="16:31:35">
        <link refId="30751"/>
        <flowCapacity type="absolute" value="1767.0"/>
    </networkChangeEvent>
    
    <networkChangeEvent startTime="15:22:14">
        <link refId="31090"/>
        <flowCapacity type="absolute" value="1466.61"/>
    </networkChangeEvent>
    
    <networkChangeEvent startTime="16:18:07">
        <link refId="31090"/>
        <flowCapacity type="absolute" value="1767.0"/>
    </networkChangeEvent>
    
    <networkChangeEvent startTime="15:25:45">
        <link refId="30910"/>
        <flowCapacity type="absolute" value="830.49"/>
    </networkChangeEvent>
    
    <networkChangeEvent startTime="17:18:00">
        <link refId="30910"/>
        <flowCapacity type="absolute" value="1767.0"/>
    </networkChangeEvent>
    
    <networkChangeEvent startTime="15:29:22">
        <link refId="10854"/>
        <flowCapacity type="absolute" value="1012.5"/>
    </networkChangeEvent>
    
    <networkChangeEvent startTime="16:44:00">
        <link refId="10854"/>
        <flowCapacity type="absolute" value="1350.0"/>
    </networkChangeEvent>
    
    <networkChangeEvent startTime="15:31:24">
        <link refId="24460"/>
        <flowCapacity type="absolute" value="22452.0"/>
    </networkChangeEvent>
    
    <networkChangeEvent startTime="16:45:00">
        <link refId="24460"/>
        <flowCapacity type="absolute" value="29936.0"/>
    </networkChangeEvent>
    
    <networkChangeEvent startTime="15:32:37">
        <link refId="17332"/>
        <flowCapacity type="absolute" value="17961.6"/>
    </networkChangeEvent>
    
    <networkChangeEvent startTime="16:37:08">
        <link refId="17332"/>
        <flowCapacity type="absolute" value="29936.0"/>
    </networkChangeEvent>
    
    <networkChangeEvent startTime="15:33:49">
        <link refId="24547"/>
        <flowCapacity type="absolute" value="11842.919999999998"/>
    </networkChangeEvent>
    
    <networkChangeEvent startTime="17:18:58">
        <link refId="24547"/>
        <flowCapacity type="absolute" value="17676.0"/>
    </networkChangeEvent>
    
    <networkChangeEvent startTime="15:34:47">
        <link refId="24993"/>
        <flowCapacity type="absolute" value="11842.919999999998"/>
    </networkChangeEvent>
    
    <networkChangeEvent startTime="16:34:37">
        <link refId="24993"/>
        <flowCapacity type="absolute" value="17676.0"/>
    </networkChangeEvent>
    
    <networkChangeEvent startTime="15:55:00">
        <link refId="24373"/>
        <flowCapacity type="absolute" value="14968.0"/>
    </networkChangeEvent>
    
    <networkChangeEvent startTime="16:17:32">
        <link refId="24373"/>
        <flowCapacity type="absolute" value="29936.0"/>
    </networkChangeEvent>
    
    <networkChangeEvent startTime="16:05:40">
        <link refId="30708"/>
        <flowCapacity type="absolute" value="1325.25"/>
    </networkChangeEvent>
    
    <networkChangeEvent startTime="17:08:39">
        <link refId="30708"/>
        <flowCapacity type="absolute" value="1767.0"/>
    </networkChangeEvent>
    
    <networkChangeEvent startTime="16:12:14">
        <link refId="24944"/>
        <flowCapacity type="absolute" value="27125.999999999996"/>
    </networkChangeEvent>
    
    <networkChangeEvent startTime="18:15:35">
        <link refId="24944"/>
        <flowCapacity type="absolute" value="41100.0"/>
    </networkChangeEvent>
    
    <networkChangeEvent startTime="16:13:23">
        <link refId="24907"/>
        <flowCapacity type="absolute" value="21553.92"/>
    </networkChangeEvent>
    
    <networkChangeEvent startTime="16:33:00">
        <link refId="24907"/>
        <flowCapacity type="absolute" value="29936.0"/>
    </networkChangeEvent>
    
    <networkChangeEvent startTime="16:18:37">
        <link refId="15880"/>
        <flowCapacity type="absolute" value="9942.75"/>
    </networkChangeEvent>
    
    <networkChangeEvent startTime="16:57:00">
        <link refId="15880"/>
        <flowCapacity type="absolute" value="13257.0"/>
    </networkChangeEvent>
    
    <networkChangeEvent startTime="16:27:47">
        <link refId="2166"/>
        <flowCapacity type="absolute" value="904.4999999999999"/>
    </networkChangeEvent>
    
    <networkChangeEvent startTime="17:47:00">
        <link refId="2166"/>
        <flowCapacity type="absolute" value="1350.0"/>
    </networkChangeEvent>
    
    <networkChangeEvent startTime="16:30:35">
        <link refId="24291"/>
        <flowCapacity type="absolute" value="6072.3"/>
    </networkChangeEvent>
    
    <networkChangeEvent startTime="17:22:06">
        <link refId="24291"/>
        <flowCapacity type="absolute" value="15570.0"/>
    </networkChangeEvent>
    
    <networkChangeEvent startTime="16:36:59">
        <link refId="24436"/>
        <flowCapacity type="absolute" value="34788.0"/>
    </networkChangeEvent>
    
    <networkChangeEvent startTime="18:01:40">
        <link refId="24436"/>
        <flowCapacity type="absolute" value="44600.0"/>
    </networkChangeEvent>
    
    <networkChangeEvent startTime="16:37:41">
        <link refId="30646"/>
        <flowCapacity type="absolute" value="795.15"/>
    </networkChangeEvent>
    
    <networkChangeEvent startTime="17:50:59">
        <link refId="30646"/>
        <flowCapacity type="absolute" value="1767.0"/>
    </networkChangeEvent>
    
    <networkChangeEvent startTime="16:41:15">
        <link refId="24561"/>
        <flowCapacity type="absolute" value="11842.919999999998"/>
    </networkChangeEvent>
    
    <networkChangeEvent startTime="18:52:11">
        <link refId="24561"/>
        <flowCapacity type="absolute" value="17676.0"/>
    </networkChangeEvent>
    
    <networkChangeEvent startTime="17:17:56">
        <link refId="26847"/>
        <flowCapacity type="absolute" value="21254.559999999998"/>
    </networkChangeEvent>
    
    <networkChangeEvent startTime="18:16:06">
        <link refId="26847"/>
        <flowCapacity type="absolute" value="29936.0"/>
    </networkChangeEvent>
    
    <networkChangeEvent startTime="17:21:07">
        <link refId="24617"/>
        <flowCapacity type="absolute" value="14968.0"/>
    </networkChangeEvent>
    
    <networkChangeEvent startTime="17:31:00">
        <link refId="24617"/>
        <flowCapacity type="absolute" value="29936.0"/>
    </networkChangeEvent>
    
    <networkChangeEvent startTime="17:24:03">
        <link refId="24391"/>
        <flowCapacity type="absolute" value="20057.12"/>
    </networkChangeEvent>
    
    <networkChangeEvent startTime="17:49:00">
        <link refId="24391"/>
        <flowCapacity type="absolute" value="29936.0"/>
    </networkChangeEvent>
    
    <networkChangeEvent startTime="17:25:07">
        <link refId="24986"/>
        <flowCapacity type="absolute" value="5987.199999999999"/>
    </networkChangeEvent>
    
    <networkChangeEvent startTime="18:32:24">
        <link refId="24986"/>
        <flowCapacity type="absolute" value="29936.0"/>
    </networkChangeEvent>
    
    <networkChangeEvent startTime="17:27:04">
        <link refId="24475"/>
        <flowCapacity type="absolute" value="13257.0"/>
    </networkChangeEvent>
    
    <networkChangeEvent startTime="18:37:49">
        <link refId="24475"/>
        <flowCapacity type="absolute" value="17676.0"/>
    </networkChangeEvent>
    
    <networkChangeEvent startTime="17:28:56">
        <link refId="30741"/>
        <flowCapacity type="absolute" value="1183.8899999999999"/>
    </networkChangeEvent>
    
    <networkChangeEvent startTime="18:03:38">
        <link refId="30741"/>
        <flowCapacity type="absolute" value="1767.0"/>
    </networkChangeEvent>
    
    <networkChangeEvent startTime="17:29:37">
        <link refId="24876"/>
        <flowCapacity type="absolute" value="23948.800000000003"/>
    </networkChangeEvent>
    
    <networkChangeEvent startTime="17:52:00">
        <link refId="24876"/>
        <flowCapacity type="absolute" value="29936.0"/>
    </networkChangeEvent>
    
    <networkChangeEvent startTime="17:30:53">
        <link refId="30650"/>
        <flowCapacity type="absolute" value="1254.57"/>
    </networkChangeEvent>
    
    <networkChangeEvent startTime="18:01:39">
        <link refId="30650"/>
        <flowCapacity type="absolute" value="1767.0"/>
    </networkChangeEvent>
    
    <networkChangeEvent startTime="17:33:48">
        <link refId="33550"/>
        <flowCapacity type="absolute" value="29881.999999999996"/>
    </networkChangeEvent>
    
    <networkChangeEvent startTime="18:17:19">
        <link refId="33550"/>
        <flowCapacity type="absolute" value="44600.0"/>
    </networkChangeEvent>
    
    <networkChangeEvent startTime="17:34:43">
        <link refId="31091"/>
        <flowCapacity type="absolute" value="1466.61"/>
    </networkChangeEvent>
    
    <networkChangeEvent startTime="18:32:00">
        <link refId="31091"/>
        <flowCapacity type="absolute" value="1767.0"/>
    </networkChangeEvent>
    
    <networkChangeEvent startTime="17:35:29">
        <link refId="24957"/>
        <flowCapacity type="absolute" value="5656.319999999999"/>
    </networkChangeEvent>
    
    <networkChangeEvent startTime="19:08:02">
        <link refId="24957"/>
        <flowCapacity type="absolute" value="17676.0"/>
    </networkChangeEvent>
    
    <networkChangeEvent startTime="17:36:01">
        <link refId="31018"/>
        <flowCapacity type="absolute" value="1342.92"/>
    </networkChangeEvent>
    
    <networkChangeEvent startTime="18:28:35">
        <link refId="31018"/>
        <flowCapacity type="absolute" value="1767.0"/>
    </networkChangeEvent>
    
    <networkChangeEvent startTime="17:49:06">
        <link refId="24522"/>
        <flowCapacity type="absolute" value="20352.0"/>
    </networkChangeEvent>
    
    <networkChangeEvent startTime="18:44:23">
        <link refId="24522"/>
        <flowCapacity type="absolute" value="27136.0"/>
    </networkChangeEvent>
    
    <networkChangeEvent startTime="17:52:16">
        <link refId="24872"/>
        <flowCapacity type="absolute" value="4982.4"/>
    </networkChangeEvent>
    
    <networkChangeEvent startTime="20:02:00">
        <link refId="24872"/>
        <flowCapacity type="absolute" value="15570.0"/>
    </networkChangeEvent>
    
    <networkChangeEvent startTime="17:54:34">
        <link refId="31022"/>
        <flowCapacity type="absolute" value="1325.25"/>
    </networkChangeEvent>
    
    <networkChangeEvent startTime="19:00:40">
        <link refId="31022"/>
        <flowCapacity type="absolute" value="1767.0"/>
    </networkChangeEvent>
    
    <networkChangeEvent startTime="17:56:34">
        <link refId="30753"/>
        <flowCapacity type="absolute" value="1448.94"/>
    </networkChangeEvent>
    
    <networkChangeEvent startTime="18:44:58">
        <link refId="30753"/>
        <flowCapacity type="absolute" value="1767.0"/>
    </networkChangeEvent>
    
    <networkChangeEvent startTime="17:58:06">
        <link refId="30755"/>
        <flowCapacity type="absolute" value="1183.8899999999999"/>
    </networkChangeEvent>
    
    <networkChangeEvent startTime="19:19:16">
        <link refId="30755"/>
        <flowCapacity type="absolute" value="1767.0"/>
    </networkChangeEvent>
    
    <networkChangeEvent startTime="18:01:36">
        <link refId="46789"/>
        <flowCapacity type="absolute" value="1254.57"/>
    </networkChangeEvent>
    
    <networkChangeEvent startTime="19:11:00">
        <link refId="46789"/>
        <flowCapacity type="absolute" value="1767.0"/>
    </networkChangeEvent>
    
    <networkChangeEvent startTime="18:28:15">
        <link refId="24989"/>
        <flowCapacity type="absolute" value="3592.3199999999997"/>
    </networkChangeEvent>
    
    <networkChangeEvent startTime="18:59:34">
        <link refId="24989"/>
        <flowCapacity type="absolute" value="29936.0"/>
    </networkChangeEvent>
    
    <networkChangeEvent startTime="18:33:50">
        <link refId="11114"/>
        <flowCapacity type="absolute" value="4713.6"/>
    </networkChangeEvent>
    
    <networkChangeEvent startTime="20:23:12">
        <link refId="11114"/>
        <flowCapacity type="absolute" value="5892.0"/>
    </networkChangeEvent>
</networkChangeEvents>
